<?xml version="1.0" encoding="UTF-8"?>

<!-- generated on 2026-04-04T17:58:18.628170+02:00 by Eclipse SUMO netconvert 1.26.0
<netconvertConfiguration xmlns:xsi="http://www.w3.org/2001/XMLSchema-instance" xsi:noNamespaceSchemaLocation="http://sumo.dlr.de/xsd/netconvertConfiguration.xsd">

    <input>
        <node-files value="C:\Users\neill\Github\tokai-sim\sim\sumo\school-gate.nod.xml,C:\Users\neill\Github\tokai-sim\sim\sumo\junction-controls.nod.xml"/>
        <edge-files value="C:\Users\neill\Github\tokai-sim\sim\sumo\school-gate.edg.xml"/>
        <osm-files value="C:\Users\neill\Github\tokai-sim\osm\bergvliet.osm"/>
    </input>

    <output>
        <output-file value="C:\Users\neill\Github\tokai-sim\sim\sumo\bergvliet.net.xml"/>
        <output.street-names value="true"/>
    </output>

    <projection>
        <proj.utm value="true"/>
    </projection>

    <processing>
        <geometry.remove value="true"/>
        <roundabouts.guess value="true"/>
    </processing>

    <junctions>
        <junctions.join value="true"/>
    </junctions>

    <formats>
        <osm.sidewalks value="false"/>
        <osm.crossings value="false"/>
    </formats>

    <report>
        <no-warnings value="true"/>
    </report>

</netconvertConfiguration>
-->

<net version="1.20" junctionCornerDetail="5" limitTurnSpeed="5.50" xmlns:xsi="http://www.w3.org/2001/XMLSchema-instance" xsi:noNamespaceSchemaLocation="http://sumo.dlr.de/xsd/net_file.xsd">

    <location netOffset="-264051.80,3771324.52" convBoundary="0.00,0.00,1654.21,1730.21" origBoundary="18.444043,-34.056213,18.461652,-34.040636" projParameter="+proj=utm +zone=34 +ellps=WGS84 +datum=WGS84 +units=m +no_defs"/>

    <type id="highway.footway" priority="1" numLanes="1" speed="2.78" allow="pedestrian" oneway="1" width="2.00"/>
    <type id="highway.path" priority="1" numLanes="1" speed="5.56" allow="pedestrian bicycle" oneway="0" width="2.00"/>
    <type id="highway.residential" priority="3" numLanes="1" speed="13.89" disallow="tram rail_urban rail rail_electric rail_fast ship container cable_car subway aircraft wheelchair scooter drone" oneway="0"/>
    <type id="highway.secondary" priority="11" numLanes="1" speed="27.78" disallow="tram rail_urban rail rail_electric rail_fast ship container cable_car subway aircraft wheelchair scooter drone" oneway="0"/>
    <type id="highway.secondary_link" priority="6" numLanes="1" speed="22.22" disallow="tram rail_urban rail rail_electric rail_fast ship container cable_car subway aircraft wheelchair scooter drone" oneway="0"/>
    <type id="highway.service" priority="1" numLanes="1" speed="5.56" allow="pedestrian delivery bicycle" oneway="0"/>
    <type id="highway.tertiary" priority="10" numLanes="1" speed="22.22" disallow="tram rail_urban rail rail_electric rail_fast ship container cable_car subway aircraft wheelchair scooter drone" oneway="0"/>
    <type id="highway.track" priority="1" numLanes="1" speed="5.56" allow="pedestrian motorcycle moped bicycle" oneway="0"/>

    <edge id=":-10_0" function="internal">
        <lane id=":-10_0_0" index="0" disallow="pedestrian tram rail_urban rail rail_electric rail_fast ship container cable_car subway aircraft wheelchair scooter drone" speed="16.67" length="8.26" shape="605.59,1622.09 604.43,1624.20 603.26,1625.44 602.04,1626.64 600.69,1628.67"/>
    </edge>
    <edge id=":-10_1" function="internal">
        <lane id=":-10_1_0" index="0" disallow="pedestrian tram rail_urban rail rail_electric rail_fast ship container cable_car subway aircraft wheelchair scooter drone" speed="3.62" length="4.27" shape="601.46,1628.92 601.86,1627.41 601.87,1626.87 601.48,1627.29 600.69,1628.67"/>
    </edge>
    <edge id=":-10_2" function="internal">
        <lane id=":-10_2_0" index="0" disallow="pedestrian tram rail_urban rail rail_electric rail_fast ship container cable_car subway aircraft wheelchair scooter drone" speed="16.67" length="8.21" shape="601.46,1628.92 601.92,1626.54 601.90,1624.83 601.96,1623.15 602.64,1620.85"/>
    </edge>
    <edge id=":-101_0" function="internal">
        <lane id=":-101_0_0" index="0" disallow="tram rail_urban rail rail_electric rail_fast ship container cable_car subway aircraft wheelchair scooter drone" speed="13.89" length="6.35" shape="202.53,1457.77 201.11,1459.01 200.17,1459.89 199.29,1460.83 198.05,1462.25"/>
    </edge>
    <edge id=":-101_1" function="internal">
        <lane id=":-101_1_0" index="0" allow="pedestrian bicycle" speed="6.47" length="2.28" width="2.00" shape="202.53,1457.77 200.86,1458.72 200.50,1458.73"/>
    </edge>
    <edge id=":-101_7" function="internal">
        <lane id=":-101_7_0" index="0" allow="pedestrian bicycle" speed="6.47" length="6.29" width="2.00" shape="200.50,1458.73 199.05,1458.76 197.11,1457.90 195.04,1456.14"/>
    </edge>
    <edge id=":-101_2" function="internal">
        <lane id=":-101_2_0" index="0" allow="pedestrian bicycle" speed="4.73" length="4.48" width="2.00" shape="196.48,1454.75 197.52,1455.61 198.53,1456.00 199.50,1455.92 200.43,1455.36"/>
    </edge>
    <edge id=":-101_3" function="internal">
        <lane id=":-101_3_0" index="0" allow="pedestrian bicycle" speed="6.40" length="8.49" width="2.00" shape="196.48,1454.75 198.17,1456.87 199.00,1458.83 198.96,1460.62 198.05,1462.25"/>
    </edge>
    <edge id=":-101_4" function="internal">
        <lane id=":-101_4_0" index="0" allow="pedestrian bicycle" speed="2.89" length="2.92" width="2.00" shape="196.48,1454.75 196.64,1455.64 196.46,1456.17 195.92,1456.33 195.04,1456.14"/>
    </edge>
    <edge id=":-101_5" function="internal">
        <lane id=":-101_5_0" index="0" allow="pedestrian bicycle" speed="4.97" length="4.51" width="2.00" shape="195.63,1460.14 196.18,1459.23 196.26,1458.25 195.88,1457.22 195.04,1456.14"/>
    </edge>
    <edge id=":-101_6" function="internal">
        <lane id=":-101_6_0" index="0" disallow="tram rail_urban rail rail_electric rail_fast ship container cable_car subway aircraft wheelchair scooter drone" speed="13.89" length="6.78" shape="195.63,1460.14 196.96,1458.63 197.91,1457.63 198.91,1456.69 200.43,1455.36"/>
    </edge>
    <edge id=":-1011_0" function="internal">
        <lane id=":-1011_0_0" index="0" disallow="tram rail_urban rail rail_electric rail_fast ship container cable_car subway aircraft wheelchair scooter drone" speed="3.65" length="4.67" shape="935.10,967.14 935.38,968.55 935.10,969.40 934.26,969.68 932.84,969.40"/>
    </edge>
    <edge id=":-1012_0" function="internal">
        <lane id=":-1012_0_0" index="0" disallow="pedestrian tram rail_urban rail rail_electric rail_fast ship container cable_car subway aircraft wheelchair scooter drone" speed="3.65" length="4.67" shape="1640.48,400.58 1639.87,401.89 1639.14,402.40 1638.29,402.13 1637.32,401.06"/>
    </edge>
    <edge id=":-1022_0" function="internal">
        <lane id=":-1022_0_0" index="0" allow="pedestrian bicycle" speed="5.56" length="4.33" width="2.00" shape="1622.55,370.30 1623.48,369.93 1624.26,369.31 1624.91,368.43 1625.41,367.29"/>
    </edge>
    <edge id=":-1022_1" function="internal">
        <lane id=":-1022_1_0" index="0" allow="pedestrian bicycle" speed="2.89" length="0.46" width="2.00" shape="1622.55,370.30 1622.98,370.46"/>
    </edge>
    <edge id=":-1022_4" function="internal">
        <lane id=":-1022_4_0" index="0" allow="pedestrian bicycle" speed="2.89" length="2.46" width="2.00" shape="1622.98,370.46 1623.39,370.61 1623.75,371.04 1623.63,371.58 1623.01,372.24"/>
    </edge>
    <edge id=":-1022_2" function="internal">
        <lane id=":-1022_2_0" index="0" allow="pedestrian bicycle" speed="5.56" length="6.66" width="2.00" shape="1627.41,367.62 1626.64,369.37 1625.64,370.73 1624.44,371.68 1623.01,372.24"/>
    </edge>
    <edge id=":-1022_3" function="internal">
        <lane id=":-1022_3_0" index="0" allow="pedestrian bicycle" speed="2.90" length="1.48" width="2.00" shape="1627.41,367.62 1626.79,368.29 1626.25,368.46"/>
    </edge>
    <edge id=":-1022_5" function="internal">
        <lane id=":-1022_5_0" index="0" allow="pedestrian bicycle" speed="2.90" length="1.48" width="2.00" shape="1626.25,368.46 1625.79,368.13 1625.41,367.29"/>
    </edge>
    <edge id=":-1023_0" function="internal">
        <lane id=":-1023_0_0" index="0" allow="pedestrian delivery bicycle" speed="5.56" length="7.51" shape="941.55,930.02 940.24,928.24 939.47,926.91 938.93,925.48 938.31,923.34"/>
    </edge>
    <edge id=":-1023_1" function="internal">
        <lane id=":-1023_1_0" index="0" allow="pedestrian delivery bicycle" speed="3.65" length="1.44" shape="941.55,930.02 941.46,928.58"/>
    </edge>
    <edge id=":-1023_4" function="internal">
        <lane id=":-1023_4_0" index="0" allow="pedestrian delivery bicycle" speed="3.65" length="3.23" shape="941.46,928.58 941.85,927.78 942.73,927.61 944.09,928.07"/>
    </edge>
    <edge id=":-1023_2" function="internal">
        <lane id=":-1023_2_0" index="0" allow="pedestrian delivery bicycle" speed="5.56" length="6.50" shape="941.33,922.27 941.86,924.12 942.31,925.37 942.96,926.52 944.09,928.07"/>
    </edge>
    <edge id=":-1023_3" function="internal">
        <lane id=":-1023_3_0" index="0" allow="pedestrian delivery bicycle" speed="3.65" length="1.44" shape="941.33,922.27 940.98,923.67"/>
    </edge>
    <edge id=":-1023_5" function="internal">
        <lane id=":-1023_5_0" index="0" allow="pedestrian delivery bicycle" speed="3.65" length="3.24" shape="940.98,923.67 940.36,924.31 939.47,924.20 938.31,923.34"/>
    </edge>
    <edge id=":-104_0" function="internal">
        <lane id=":-104_0_0" index="0" disallow="tram rail_urban rail rail_electric rail_fast ship container cable_car subway aircraft wheelchair scooter drone" speed="13.89" length="15.30" shape="298.33,1387.84 295.81,1390.54 294.11,1393.95 292.94,1397.71 292.03,1401.47"/>
    </edge>
    <edge id=":-104_1" function="internal">
        <lane id=":-104_1_0" index="0" disallow="tram rail_urban rail rail_electric rail_fast ship container cable_car subway aircraft wheelchair scooter drone" speed="13.89" length="17.08" shape="298.33,1387.84 284.05,1397.22"/>
    </edge>
    <edge id=":-104_2" function="internal">
        <lane id=":-104_2_0" index="0" disallow="tram rail_urban rail rail_electric rail_fast ship container cable_car subway aircraft wheelchair scooter drone" speed="3.65" length="1.44" shape="298.33,1387.84 296.88,1387.91"/>
    </edge>
    <edge id=":-104_9" function="internal">
        <lane id=":-104_9_0" index="0" disallow="tram rail_urban rail rail_electric rail_fast ship container cable_car subway aircraft wheelchair scooter drone" speed="3.65" length="3.23" shape="296.88,1387.91 296.09,1387.51 295.93,1386.63 296.42,1385.27"/>
    </edge>
    <edge id=":-104_3" function="internal">
        <lane id=":-104_3_0" index="0" disallow="tram rail_urban rail rail_electric rail_fast ship container cable_car subway aircraft wheelchair scooter drone" speed="13.89" length="16.82" shape="282.36,1394.50 296.42,1385.27"/>
    </edge>
    <edge id=":-104_4" function="internal">
        <lane id=":-104_4_0" index="0" disallow="tram rail_urban rail rail_electric rail_fast ship container cable_car subway aircraft wheelchair scooter drone" speed="7.43" length="5.23" shape="282.36,1394.50 287.08,1392.25"/>
    </edge>
    <edge id=":-104_5" function="internal">
        <lane id=":-104_5_0" index="0" disallow="tram rail_urban rail rail_electric rail_fast ship container cable_car subway aircraft wheelchair scooter drone" speed="3.65" length="1.44" shape="282.36,1394.50 283.80,1394.55"/>
    </edge>
    <edge id=":-104_10" function="internal">
        <lane id=":-104_10_0" index="0" disallow="tram rail_urban rail rail_electric rail_fast ship container cable_car subway aircraft wheelchair scooter drone" speed="7.43" length="14.16" shape="287.08,1392.25 287.96,1391.83 291.44,1392.10 292.80,1395.31 292.03,1401.47"/>
    </edge>
    <edge id=":-104_11" function="internal">
        <lane id=":-104_11_0" index="0" disallow="tram rail_urban rail rail_electric rail_fast ship container cable_car subway aircraft wheelchair scooter drone" speed="3.65" length="3.23" shape="283.80,1394.55 284.57,1395.02 284.65,1395.91 284.05,1397.22"/>
    </edge>
    <edge id=":-104_6" function="internal">
        <lane id=":-104_6_0" index="0" disallow="tram rail_urban rail rail_electric rail_fast ship container cable_car subway aircraft wheelchair scooter drone" speed="5.47" length="9.76" shape="288.92,1400.73 289.31,1397.63 288.62,1396.01 286.87,1395.88 284.05,1397.22"/>
    </edge>
    <edge id=":-104_7" function="internal">
        <lane id=":-104_7_0" index="0" disallow="tram rail_urban rail rail_electric rail_fast ship container cable_car subway aircraft wheelchair scooter drone" speed="13.89" length="17.44" shape="288.92,1400.73 290.02,1396.68 291.60,1392.29 293.72,1388.26 296.42,1385.27"/>
    </edge>
    <edge id=":-104_8" function="internal">
        <lane id=":-104_8_0" index="0" disallow="tram rail_urban rail rail_electric rail_fast ship container cable_car subway aircraft wheelchair scooter drone" speed="3.65" length="4.67" shape="288.92,1400.73 289.98,1399.75 290.85,1399.54 291.53,1400.12 292.03,1401.47"/>
    </edge>
    <edge id=":-1045_0" function="internal">
        <lane id=":-1045_0_0" index="0" allow="pedestrian delivery bicycle" speed="3.65" length="4.67" shape="176.33,994.22 175.45,993.07 175.32,992.19 175.96,991.56 177.35,991.18"/>
    </edge>
    <edge id=":-1053_0" function="internal">
        <lane id=":-1053_0_0" index="0" allow="pedestrian delivery bicycle" speed="5.19" length="5.18" shape="768.05,991.02 766.85,990.16 765.69,989.85 764.55,990.09 763.46,990.88"/>
    </edge>
    <edge id=":-1053_1" function="internal">
        <lane id=":-1053_1_0" index="0" allow="pedestrian delivery bicycle" speed="5.56" length="10.39" shape="768.05,991.02 766.25,988.79 765.63,986.54 766.19,984.28 767.93,982.00"/>
    </edge>
    <edge id=":-1053_2" function="internal">
        <lane id=":-1053_2_0" index="0" allow="pedestrian delivery bicycle" speed="3.65" length="4.67" shape="768.05,991.02 767.72,989.61 767.97,988.75 768.81,988.44 770.23,988.67"/>
    </edge>
    <edge id=":-1053_3" function="internal">
        <lane id=":-1053_3_0" index="0" allow="pedestrian delivery bicycle" speed="4.99" length="5.05" shape="770.17,984.29 769.33,985.40 769.05,986.50 769.35,987.59 770.23,988.67"/>
    </edge>
    <edge id=":-1053_4" function="internal">
        <lane id=":-1053_4_0" index="0" allow="pedestrian delivery bicycle" speed="5.56" length="9.41" shape="770.17,984.29 763.46,990.88"/>
    </edge>
    <edge id=":-1053_5" function="internal">
        <lane id=":-1053_5_0" index="0" allow="pedestrian delivery bicycle" speed="3.65" length="4.67" shape="770.17,984.29 768.76,984.56 767.91,984.27 767.64,983.41 767.93,982.00"/>
    </edge>
    <edge id=":-1053_6" function="internal">
        <lane id=":-1053_6_0" index="0" allow="pedestrian delivery bicycle" speed="5.56" length="9.41" shape="761.22,988.59 767.93,982.00"/>
    </edge>
    <edge id=":-1053_7" function="internal">
        <lane id=":-1053_7_0" index="0" allow="pedestrian delivery bicycle" speed="5.56" length="10.18" shape="761.22,988.59 763.41,987.00 765.64,986.48 767.92,987.04 770.23,988.67"/>
    </edge>
    <edge id=":-1053_8" function="internal">
        <lane id=":-1053_8_0" index="0" allow="pedestrian delivery bicycle" speed="3.65" length="4.67" shape="761.22,988.59 762.63,988.32 763.48,988.61 763.75,989.46 763.46,990.88"/>
    </edge>
    <edge id=":-1054_0" function="internal">
        <lane id=":-1054_0_0" index="0" allow="pedestrian delivery bicycle" speed="5.00" length="5.04" shape="789.41,969.85 788.34,968.97 787.25,968.65 786.14,968.91 785.03,969.73"/>
    </edge>
    <edge id=":-1054_1" function="internal">
        <lane id=":-1054_1_0" index="0" allow="pedestrian delivery bicycle" speed="5.56" length="10.21" shape="789.41,969.85 787.81,967.52 787.30,965.25 787.90,963.03 789.61,960.86"/>
    </edge>
    <edge id=":-1054_2" function="internal">
        <lane id=":-1054_2_0" index="0" allow="pedestrian delivery bicycle" speed="3.65" length="4.67" shape="789.41,969.85 789.19,968.42 789.51,967.59 790.37,967.34 791.77,967.68"/>
    </edge>
    <edge id=":-1054_3" function="internal">
        <lane id=":-1054_3_0" index="0" allow="pedestrian delivery bicycle" speed="5.12" length="5.11" shape="791.81,963.18 790.97,964.26 790.69,965.37 790.95,966.51 791.77,967.68"/>
    </edge>
    <edge id=":-1054_4" function="internal">
        <lane id=":-1054_4_0" index="0" allow="pedestrian delivery bicycle" speed="5.56" length="9.43" shape="791.81,963.18 785.03,969.73"/>
    </edge>
    <edge id=":-1054_5" function="internal">
        <lane id=":-1054_5_0" index="0" allow="pedestrian delivery bicycle" speed="3.65" length="4.67" shape="791.81,963.18 790.39,963.43 789.55,963.12 789.29,962.27 789.61,960.86"/>
    </edge>
    <edge id=":-1054_6" function="internal">
        <lane id=":-1054_6_0" index="0" allow="pedestrian delivery bicycle" speed="5.56" length="9.48" shape="782.79,967.44 789.61,960.86"/>
    </edge>
    <edge id=":-1054_7" function="internal">
        <lane id=":-1054_7_0" index="0" allow="pedestrian delivery bicycle" speed="5.56" length="10.33" shape="782.79,967.44 785.08,965.76 787.34,965.24 789.57,965.88 791.77,967.68"/>
    </edge>
    <edge id=":-1054_8" function="internal">
        <lane id=":-1054_8_0" index="0" allow="pedestrian delivery bicycle" speed="3.65" length="4.67" shape="782.79,967.44 784.20,967.17 785.05,967.47 785.32,968.32 785.03,969.73"/>
    </edge>
    <edge id=":-106_0" function="internal">
        <lane id=":-106_0_0" index="0" disallow="tram rail_urban rail rail_electric rail_fast ship container cable_car subway aircraft wheelchair scooter drone" speed="8.62" length="11.27" shape="374.46,1337.32 371.22,1336.16 368.36,1335.82 365.89,1336.27 363.81,1337.54"/>
    </edge>
    <edge id=":-106_1" function="internal">
        <lane id=":-106_1_0" index="0" disallow="tram rail_urban rail rail_electric rail_fast ship container cable_car subway aircraft wheelchair scooter drone" speed="7.52" length="15.75" shape="374.46,1337.32 370.60,1334.87 368.94,1332.02 369.46,1328.75 372.18,1325.08"/>
    </edge>
    <edge id=":-106_2" function="internal">
        <lane id=":-106_2_0" index="0" disallow="tram rail_urban rail rail_electric rail_fast ship container cable_car subway aircraft wheelchair scooter drone" speed="3.65" length="4.67" shape="374.46,1337.32 373.70,1336.10 373.66,1335.20 374.36,1334.64 375.78,1334.40"/>
    </edge>
    <edge id=":-106_3" function="internal">
        <lane id=":-106_3_0" index="0" disallow="tram rail_urban rail rail_electric rail_fast ship container cable_car subway aircraft wheelchair scooter drone" speed="5.88" length="9.11" shape="374.46,1327.32 372.89,1329.45 372.59,1331.34 373.55,1332.99 375.78,1334.40"/>
    </edge>
    <edge id=":-106_4" function="internal">
        <lane id=":-106_4_0" index="0" disallow="tram rail_urban rail rail_electric rail_fast ship container cable_car subway aircraft wheelchair scooter drone" speed="13.89" length="14.76" shape="374.46,1327.32 363.81,1337.54"/>
    </edge>
    <edge id=":-106_5" function="internal">
        <lane id=":-106_5_0" index="0" disallow="tram rail_urban rail rail_electric rail_fast ship container cable_car subway aircraft wheelchair scooter drone" speed="3.65" length="1.44" shape="374.46,1327.32 373.05,1327.62"/>
    </edge>
    <edge id=":-106_9" function="internal">
        <lane id=":-106_9_0" index="0" disallow="tram rail_urban rail rail_electric rail_fast ship container cable_car subway aircraft wheelchair scooter drone" speed="3.65" length="3.23" shape="373.05,1327.62 372.20,1327.34 371.91,1326.49 372.18,1325.08"/>
    </edge>
    <edge id=":-106_6" function="internal">
        <lane id=":-106_6_0" index="0" disallow="tram rail_urban rail rail_electric rail_fast ship container cable_car subway aircraft wheelchair scooter drone" speed="13.89" length="14.53" shape="361.69,1335.14 372.18,1325.08"/>
    </edge>
    <edge id=":-106_7" function="internal">
        <lane id=":-106_7_0" index="0" disallow="tram rail_urban rail rail_electric rail_fast ship container cable_car subway aircraft wheelchair scooter drone" speed="9.86" length="3.40" shape="361.69,1335.14 364.57,1333.33"/>
    </edge>
    <edge id=":-106_8" function="internal">
        <lane id=":-106_8_0" index="0" disallow="tram rail_urban rail rail_electric rail_fast ship container cable_car subway aircraft wheelchair scooter drone" speed="3.65" length="1.44" shape="361.69,1335.14 363.12,1334.94"/>
    </edge>
    <edge id=":-106_10" function="internal">
        <lane id=":-106_10_0" index="0" disallow="tram rail_urban rail rail_electric rail_fast ship container cable_car subway aircraft wheelchair scooter drone" speed="9.86" length="11.55" shape="364.57,1333.33 367.88,1332.60 371.61,1332.96 375.78,1334.40"/>
    </edge>
    <edge id=":-106_11" function="internal">
        <lane id=":-106_11_0" index="0" disallow="tram rail_urban rail rail_electric rail_fast ship container cable_car subway aircraft wheelchair scooter drone" speed="3.65" length="3.23" shape="363.12,1334.94 363.95,1335.28 364.18,1336.14 363.81,1337.54"/>
    </edge>
    <edge id=":-1060_0" function="internal">
        <lane id=":-1060_0_0" index="0" allow="pedestrian delivery bicycle" speed="3.65" length="4.67" shape="823.05,959.49 823.32,960.91 823.03,961.75 822.18,962.03 820.77,961.73"/>
    </edge>
    <edge id=":-1061_0" function="internal">
        <lane id=":-1061_0_0" index="0" allow="pedestrian delivery bicycle" speed="3.65" length="4.67" shape="1381.14,84.33 1380.38,83.10 1380.36,82.21 1381.06,81.65 1382.48,81.43"/>
    </edge>
    <edge id=":-1064_0" function="internal">
        <lane id=":-1064_0_0" index="0" allow="pedestrian delivery bicycle" speed="3.65" length="4.67" shape="647.22,1338.04 648.43,1337.26 649.33,1337.21 649.90,1337.90 650.16,1339.32"/>
    </edge>
    <edge id=":-1065_0" function="internal">
        <lane id=":-1065_0_0" index="0" allow="pedestrian delivery bicycle" speed="5.32" length="4.69" shape="529.88,1376.37 529.03,1375.36 528.08,1374.76 527.03,1374.57 525.88,1374.81"/>
    </edge>
    <edge id=":-1065_1" function="internal">
        <lane id=":-1065_1_0" index="0" allow="pedestrian delivery bicycle" speed="5.56" length="8.03" shape="529.88,1376.37 528.87,1374.44 528.39,1372.52 528.43,1370.62 528.99,1368.73"/>
    </edge>
    <edge id=":-1065_2" function="internal">
        <lane id=":-1065_2_0" index="0" allow="pedestrian delivery bicycle" speed="3.65" length="4.67" shape="529.88,1376.37 529.89,1374.93 530.34,1374.16 531.23,1374.05 532.56,1374.62"/>
    </edge>
    <edge id=":-1065_3" function="internal">
        <lane id=":-1065_3_0" index="0" allow="pedestrian delivery bicycle" speed="5.56" length="4.84" shape="531.92,1370.02 531.60,1371.12 531.60,1372.25 531.92,1373.42 532.56,1374.62"/>
    </edge>
    <edge id=":-1065_4" function="internal">
        <lane id=":-1065_4_0" index="0" allow="pedestrian delivery bicycle" speed="5.56" length="7.91" shape="531.92,1370.02 531.04,1371.47 529.73,1372.75 528.02,1373.86 525.88,1374.81"/>
    </edge>
    <edge id=":-1065_5" function="internal">
        <lane id=":-1065_5_0" index="0" allow="pedestrian delivery bicycle" speed="3.65" length="4.67" shape="531.92,1370.02 530.70,1370.80 529.81,1370.84 529.24,1370.15 528.99,1368.73"/>
    </edge>
    <edge id=":-1065_6" function="internal">
        <lane id=":-1065_6_0" index="0" allow="pedestrian delivery bicycle" speed="5.56" length="5.07" shape="525.10,1371.70 526.43,1371.25 527.52,1370.60 528.38,1369.76 528.99,1368.73"/>
    </edge>
    <edge id=":-1065_7" function="internal">
        <lane id=":-1065_7_0" index="0" allow="pedestrian delivery bicycle" speed="5.56" length="8.60" shape="525.10,1371.70 527.35,1371.44 529.35,1371.84 531.08,1372.90 532.56,1374.62"/>
    </edge>
    <edge id=":-1065_8" function="internal">
        <lane id=":-1065_8_0" index="0" allow="pedestrian delivery bicycle" speed="3.70" length="4.67" shape="525.10,1371.70 526.46,1372.19 527.04,1372.87 526.85,1373.74 525.88,1374.81"/>
    </edge>
    <edge id=":-1075_0" function="internal">
        <lane id=":-1075_0_0" index="0" allow="pedestrian delivery bicycle" speed="5.56" length="2.12" shape="515.09,1393.68 514.47,1393.64 514.04,1393.58 513.63,1393.42 513.07,1393.14"/>
    </edge>
    <edge id=":-1075_1" function="internal">
        <lane id=":-1075_1_0" index="0" allow="pedestrian delivery bicycle" speed="5.56" length="0.71" shape="514.54,1390.30 514.73,1390.39 514.86,1390.44 515.00,1390.47 515.21,1390.48"/>
    </edge>
    <edge id=":-1087_0" function="internal">
        <lane id=":-1087_0_0" index="0" allow="pedestrian delivery bicycle" speed="3.65" length="4.67" shape="921.24,863.59 922.66,863.33 923.50,863.63 923.77,864.48 923.46,865.89"/>
    </edge>
    <edge id=":-1092_0" function="internal">
        <lane id=":-1092_0_0" index="0" allow="pedestrian delivery bicycle" speed="3.65" length="4.67" shape="811.45,989.15 811.67,990.57 811.35,991.41 810.49,991.66 809.09,991.31"/>
    </edge>
    <edge id=":-11_0" function="internal">
        <lane id=":-11_0_0" index="0" disallow="pedestrian tram rail_urban rail rail_electric rail_fast ship container cable_car subway aircraft wheelchair scooter drone" speed="16.67" length="14.34" shape="722.21,1341.88 716.74,1355.14"/>
    </edge>
    <edge id=":-11_1" function="internal">
        <lane id=":-11_1_0" index="0" disallow="pedestrian tram rail_urban rail rail_electric rail_fast ship container cable_car subway aircraft wheelchair scooter drone" speed="7.93" length="4.08" shape="722.21,1341.88 720.26,1345.21 720.08,1345.35"/>
    </edge>
    <edge id=":-11_2" function="internal">
        <lane id=":-11_2_0" index="0" disallow="pedestrian tram rail_urban rail rail_electric rail_fast ship container cable_car subway aircraft wheelchair scooter drone" speed="3.65" length="1.44" shape="722.21,1341.88 721.01,1342.68"/>
    </edge>
    <edge id=":-11_9" function="internal">
        <lane id=":-11_9_0" index="0" disallow="pedestrian tram rail_urban rail rail_electric rail_fast ship container cable_car subway aircraft wheelchair scooter drone" speed="7.93" length="9.64" shape="720.08,1345.35 717.77,1347.15 714.76,1347.71 711.21,1346.88"/>
    </edge>
    <edge id=":-11_10" function="internal">
        <lane id=":-11_10_0" index="0" disallow="pedestrian tram rail_urban rail rail_electric rail_fast ship container cable_car subway aircraft wheelchair scooter drone" speed="3.65" length="3.23" shape="721.01,1342.68 720.11,1342.74 719.53,1342.06 719.26,1340.64"/>
    </edge>
    <edge id=":-11_3" function="internal">
        <lane id=":-11_3_0" index="0" disallow="pedestrian tram rail_urban rail rail_electric rail_fast ship container cable_car subway aircraft wheelchair scooter drone" speed="6.41" length="8.63" shape="712.39,1343.91 714.59,1344.41 716.46,1344.03 718.02,1342.77 719.26,1340.64"/>
    </edge>
    <edge id=":-11_4" function="internal">
        <lane id=":-11_4_0" index="0" disallow="pedestrian tram rail_urban rail rail_electric rail_fast ship container cable_car subway aircraft wheelchair scooter drone" speed="7.87" length="13.75" shape="712.39,1343.91 715.54,1345.75 717.31,1348.24 717.71,1351.37 716.74,1355.14"/>
    </edge>
    <edge id=":-11_5" function="internal">
        <lane id=":-11_5_0" index="0" disallow="tram rail_urban rail rail_electric rail_fast ship container cable_car subway aircraft wheelchair scooter drone" speed="3.65" length="4.67" shape="712.39,1343.91 713.21,1345.09 713.29,1345.98 712.62,1346.58 711.21,1346.88"/>
    </edge>
    <edge id=":-11_6" function="internal">
        <lane id=":-11_6_0" index="0" disallow="pedestrian tram rail_urban rail rail_electric rail_fast ship container cable_car subway aircraft wheelchair scooter drone" speed="6.34" length="8.57" shape="713.77,1353.94 714.40,1351.55 714.19,1349.57 713.12,1348.02 711.21,1346.88"/>
    </edge>
    <edge id=":-11_7" function="internal">
        <lane id=":-11_7_0" index="0" disallow="pedestrian tram rail_urban rail rail_electric rail_fast ship container cable_car subway aircraft wheelchair scooter drone" speed="16.67" length="14.38" shape="713.77,1353.94 719.26,1340.64"/>
    </edge>
    <edge id=":-11_8" function="internal">
        <lane id=":-11_8_0" index="0" disallow="pedestrian tram rail_urban rail rail_electric rail_fast ship container cable_car subway aircraft wheelchair scooter drone" speed="3.65" length="1.44" shape="713.77,1353.94 714.97,1353.13"/>
    </edge>
    <edge id=":-11_11" function="internal">
        <lane id=":-11_11_0" index="0" disallow="pedestrian tram rail_urban rail rail_electric rail_fast ship container cable_car subway aircraft wheelchair scooter drone" speed="3.65" length="3.23" shape="714.97,1353.13 715.86,1353.06 716.45,1353.73 716.74,1355.14"/>
    </edge>
    <edge id=":-1101_0" function="internal">
        <lane id=":-1101_0_0" index="0" allow="pedestrian delivery bicycle" speed="3.65" length="4.67" shape="809.19,1013.77 809.46,1015.19 809.18,1016.04 808.33,1016.32 806.91,1016.03"/>
    </edge>
    <edge id=":-1103_0" function="internal">
        <lane id=":-1103_0_0" index="0" allow="pedestrian delivery bicycle" speed="3.65" length="4.67" shape="197.72,1314.41 198.53,1315.60 198.60,1316.49 197.93,1317.08 196.52,1317.37"/>
    </edge>
    <edge id=":-1107_0" function="internal">
        <lane id=":-1107_0_0" index="0" allow="pedestrian delivery bicycle" speed="3.65" length="4.67" shape="160.82,1394.89 160.09,1396.14 159.32,1396.59 158.50,1396.24 157.62,1395.09"/>
    </edge>
    <edge id=":-1109_0" function="internal">
        <lane id=":-1109_0_0" index="0" allow="pedestrian delivery bicycle" speed="3.65" length="4.67" shape="177.66,1341.74 178.94,1341.08 179.83,1341.13 180.34,1341.87 180.44,1343.30"/>
    </edge>