<?xml version="1.0" ?>
<edges>
  <edge id="e0_fwd" from="n_18.446499_-34.03413" to="n_18.443852_-34.038065" numLanes="1" speed="22.2222" name="motorway_link" shape="18.4463921,-34.0341703 18.4460898,-34.0342748 18.4454441,-34.0345254 18.4451772,-34.0346588 18.4450807,-34.0347088 18.44497,-34.0347782 18.4448453,-34.0348699 18.4446716,-34.0350139 18.444508,-34.0351778 18.4443431,-34.0353812 18.4441855,-34.035629 18.4441332,-34.0357368 18.4440742,-34.0358707 18.4440209,-34.0360488 18.4439826,-34.036205 18.4439602,-34.0363842 18.4439461,-34.0366692 18.4439239,-34.0373364 18.4439139,-34.0375633 18.4439072,-34.0376944 18.4438978,-34.0378367"/>
  <edge id="e1_fwd" from="n_18.446547_-34.054248" to="n_18.44646_-34.053922" numLanes="2" speed="27.7778" name="Simon van der Stel Freeway"/>
  <edge id="e2_fwd" from="n_18.446656_-34.053877" to="n_18.446743_-34.054195" numLanes="2" speed="27.7778" name="Simon van der Stel Freeway"/>
  <edge id="e3_fwd" from="n_18.44646_-34.053922" to="n_18.449402_-34.023688" numLanes="2" speed="27.7778" name="Simon van der Stel Freeway" shape="18.4461156,-34.0526156 18.4458914,-34.0517469 18.4450742,-34.0487296 18.444919,-34.0481507 18.4446144,-34.0470117 18.4443214,-34.0458827 18.4441205,-34.0451429 18.4439154,-34.0443562 18.4437888,-34.0438272 18.4437054,-34.0432638 18.4436668,-34.0429467 18.4436474,-34.0426457 18.4436286,-34.0421222 18.4436294,-34.0418639 18.4436294,-34.0416206 18.4436288,-34.0403081 18.4436353,-34.0395037 18.443641,-34.0387069 18.4436455,-34.0376859 18.4436539,-34.0365988 18.4436649,-34.0361552 18.4436978,-34.0356638 18.4437318,-34.0353842 18.4437802,-34.0351029 18.4438452,-34.0347557 18.4439455,-34.0343398 18.4440437,-34.0339936 18.4441093,-34.0338006 18.4442176,-34.033469 18.4443426,-34.0331604 18.4444902,-34.032819 18.4446827,-34.0324219 18.4448977,-34.0320217 18.445104,-34.0316363 18.4452711,-34.0313346 18.4455454,-34.030825 18.4459122,-34.0301615 18.4463909,-34.0292482 18.4467993,-34.028501 18.4471101,-34.0279306 18.448182,-34.0259635 18.4486865,-34.0250265"/>
  <edge id="e4_fwd" from="n_18.446743_-34.054195" to="n_18.44896_-34.064143" numLanes="2" speed="27.7778" name="Simon van der Stel Freeway" shape="18.4468646,-34.054654 18.4470044,-34.055175 18.4472628,-34.0561522 18.4473829,-34.0565899 18.447506,-34.0570577 18.4476428,-34.0575668 18.447783,-34.0581 18.4479352,-34.0586555 18.4482206,-34.0597429 18.4485885,-34.0611304 18.4487105,-34.0615821 18.44878,-34.0619407 18.4488625,-34.0623735 18.4489061,-34.0627248 18.4489375,-34.0630423 18.4489581,-34.0633861 18.4489648,-34.0637711"/>
  <edge id="e5_fwd" from="n_18.463662_-34.042524" to="n_18.464648_-34.042699" numLanes="1" speed="13.8889" name="Roscommon Road" shape="18.4637709,-34.0425357 18.4642207,-34.0426071"/>
  <edge id="e6_fwd" from="n_18.461452_-34.05306" to="n_18.461466_-34.052971" numLanes="2" speed="16.6667" name="Main Road"/>
  <edge id="e6_rev" from="n_18.461466_-34.052971" to="n_18.461452_-34.05306" numLanes="2" speed="16.6667" name="Main Road"/>
  <edge id="e7_fwd" from="n_18.464212_-34.042661" to="n_18.463647_-34.042594" numLanes="2" speed="13.8889" name="Roscommon Road" shape="18.4637554,-34.0426019"/>
  <edge id="e8_fwd" from="n_18.464648_-34.042699" to="n_18.465473_-34.042819" numLanes="2" speed="13.8889" name="Roscommon Road" shape="18.4653036,-34.0427942"/>
  <edge id="e8_rev" from="n_18.465473_-34.042819" to="n_18.464648_-34.042699" numLanes="2" speed="13.8889" name="Roscommon Road" shape="18.4653036,-34.0427942"/>
  <edge id="e9_fwd" from="n_18.464223_-34.051889" to="n_18.464217_-34.051813" numLanes="1" speed="8.3333" name="Station Road" shape="18.4642149,-34.0518716 18.4642102,-34.0518533 18.4642119,-34.0518325"/>
  <edge id="e9_rev" from="n_18.464217_-34.051813" to="n_18.464223_-34.051889" numLanes="1" speed="8.3333" name="Station Road" shape="18.4642119,-34.0518325 18.4642102,-34.0518533 18.4642149,-34.0518716"/>
  <edge id="e10_fwd" from="n_18.455567_-34.041471" to="n_18.456045_-34.041544" numLanes="2" speed="13.8889" name="Bergvliet Road" shape="18.4556638,-34.0414871"/>
  <edge id="e10_rev" from="n_18.456045_-34.041544" to="n_18.455567_-34.041471" numLanes="2" speed="13.8889" name="Bergvliet Road" shape="18.4556638,-34.0414871"/>
  <edge id="e11_fwd" from="n_18.456045_-34.041544" to="n_18.456284_-34.041581" numLanes="2" speed="13.8889" name="Bergvliet Road"/>
  <edge id="e11_rev" from="n_18.456284_-34.041581" to="n_18.456045_-34.041544" numLanes="2" speed="13.8889" name="Bergvliet Road"/>
  <edge id="e12_fwd" from="n_18.456284_-34.041581" to="n_18.456366_-34.041594" numLanes="2" speed="13.8889" name="Bergvliet Road"/>
  <edge id="e12_rev" from="n_18.456366_-34.041594" to="n_18.456284_-34.041581" numLanes="2" speed="13.8889" name="Bergvliet Road"/>
  <edge id="e13_fwd" from="n_18.460711_-34.03476" to="n_18.460936_-34.037914" numLanes="2" speed="16.6667" name="Boundary Road" shape="18.4607212,-34.035074 18.4607252,-34.0351571 18.4607549,-34.0362048 18.4607761,-34.0364664"/>
  <edge id="e13_rev" from="n_18.460936_-34.037914" to="n_18.460711_-34.03476" numLanes="2" speed="16.6667" name="Boundary Road" shape="18.4607761,-34.0364664 18.4607549,-34.0362048 18.4607252,-34.0351571 18.4607212,-34.035074"/>
  <edge id="e14_fwd" from="n_18.460936_-34.037914" to="n_18.460998_-34.038468" numLanes="2" speed="16.6667" name="Boundary Road"/>
  <edge id="e14_rev" from="n_18.460998_-34.038468" to="n_18.460936_-34.037914" numLanes="2" speed="16.6667" name="Boundary Road"/>
  <edge id="e15_fwd" from="n_18.460998_-34.038468" to="n_18.461055_-34.039017" numLanes="2" speed="16.6667" name="Boundary Road"/>
  <edge id="e15_rev" from="n_18.461055_-34.039017" to="n_18.460998_-34.038468" numLanes="2" speed="16.6667" name="Boundary Road"/>
  <edge id="e16_fwd" from="n_18.461055_-34.039017" to="n_18.461212_-34.04042" numLanes="2" speed="16.6667" name="Boundary Road"/>
  <edge id="e16_rev" from="n_18.461212_-34.04042" to="n_18.461055_-34.039017" numLanes="2" speed="16.6667" name="Boundary Road"/>
  <edge id="e17_fwd" from="n_18.461212_-34.04042" to="n_18.461257_-34.040803" numLanes="2" speed="16.6667" name="Boundary Road" shape="18.4612423,-34.0406765"/>
  <edge id="e17_rev" from="n_18.461257_-34.040803" to="n_18.461212_-34.04042" numLanes="2" speed="16.6667" name="Boundary Road" shape="18.4612423,-34.0406765"/>
  <edge id="e18_fwd" from="n_18.461257_-34.040803" to="n_18.461446_-34.042375" numLanes="2" speed="16.6667" name="Boundary Road" shape="18.4612636,-34.0408562 18.4614347,-34.0422803"/>
  <edge id="e18_rev" from="n_18.461446_-34.042375" to="n_18.461257_-34.040803" numLanes="2" speed="16.6667" name="Boundary Road" shape="18.4614347,-34.0422803 18.4612636,-34.0408562"/>
  <edge id="e19_fwd" from="n_18.450343_-34.040619" to="n_18.450973_-34.040634" numLanes="1" speed="13.8889" name="Firgrove Way" shape="18.4504205,-34.0406486 18.4504748,-34.0406621 18.4505116,-34.0406693 18.4505477,-34.040676 18.4506001,-34.0406817 18.450648,-34.0406838 18.4506951,-34.0406827 18.450737,-34.0406797 18.450774,-34.040676 18.4508327,-34.0406652"/>
  <edge id="e20_fwd" from="n_18.450973_-34.040634" to="n_18.450538_-34.041" numLanes="1" speed="13.8889" name="Firgrove Way" shape="18.4508359,-34.0407019 18.4507886,-34.0407286 18.4507489,-34.040756 18.4507121,-34.0407844 18.4506759,-34.0408162 18.4506414,-34.040852 18.4506172,-34.0408823 18.4505898,-34.0409193 18.450569,-34.0409514"/>
  <edge id="e21_fwd" from="n_18.450973_-34.040634" to="n_18.452537_-34.040162" numLanes="2" speed="13.8889" name="Firgrove Way" shape="18.4518284,-34.0403763"/>
  <edge id="e21_rev" from="n_18.452537_-34.040162" to="n_18.450973_-34.040634" numLanes="2" speed="13.8889" name="Firgrove Way" shape="18.4518284,-34.0403763"/>
  <edge id="e22_fwd" from="n_18.452537_-34.040162" to="n_18.452782_-34.040089" numLanes="2" speed="13.8889" name="Firgrove Way"/>
  <edge id="e22_rev" from="n_18.452782_-34.040089" to="n_18.452537_-34.040162" numLanes="2" speed="13.8889" name="Firgrove Way"/>
  <edge id="e23_fwd" from="n_18.450605_-34.04159" to="n_18.451778_-34.044112" numLanes="2" speed="16.6667" name="Ladies Mile Road" shape="18.4514482,-34.0433839"/>
  <edge id="e23_rev" from="n_18.451778_-34.044112" to="n_18.450605_-34.04159" numLanes="2" speed="16.6667" name="Ladies Mile Road" shape="18.4514482,-34.0433839"/>
  <edge id="e24_fwd" from="n_18.454683_-34.053394" to="n_18.456215_-34.052629" numLanes="1" speed="8.3333" name="Childrens Way" shape="18.4557699,-34.0528561 18.4560938,-34.0526955"/>
  <edge id="e24_rev" from="n_18.456215_-34.052629" to="n_18.454683_-34.053394" numLanes="1" speed="8.3333" name="Childrens Way" shape="18.4560938,-34.0526955 18.4557699,-34.0528561"/>
  <edge id="e25_fwd" from="n_18.456215_-34.052629" to="n_18.456623_-34.052317" numLanes="1" speed="8.3333" name="Childrens Way"/>
  <edge id="e25_rev" from="n_18.456623_-34.052317" to="n_18.456215_-34.052629" numLanes="1" speed="8.3333" name="Childrens Way"/>
  <edge id="e26_fwd" from="n_18.456623_-34.052317" to="n_18.45754_-34.051566" numLanes="1" speed="8.3333" name="Childrens Way"/>
  <edge id="e26_rev" from="n_18.45754_-34.051566" to="n_18.456623_-34.052317" numLanes="1" speed="8.3333" name="Childrens Way"/>
  <edge id="e27_fwd" from="n_18.461362_-34.043447" to="n_18.462701_-34.044884" numLanes="1" speed="8.3333" name="Sweet Valley Road" shape="18.4624198,-34.0444461 18.4627051,-34.0447069 18.4627169,-34.0447216 18.4627212,-34.0447419 18.4627212,-34.0447664 18.4627061,-34.0448582"/>
  <edge id="e27_rev" from="n_18.462701_-34.044884" to="n_18.461362_-34.043447" numLanes="1" speed="8.3333" name="Sweet Valley Road" shape="18.4627061,-34.0448582 18.4627212,-34.0447664 18.4627212,-34.0447419 18.4627169,-34.0447216 18.4627051,-34.0447069 18.4624198,-34.0444461"/>
  <edge id="e28_fwd" from="n_18.462701_-34.044884" to="n_18.462696_-34.044912" numLanes="1" speed="8.3333" name="Sweet Valley Road"/>
  <edge id="e28_rev" from="n_18.462696_-34.044912" to="n_18.462701_-34.044884" numLanes="1" speed="8.3333" name="Sweet Valley Road"/>
  <edge id="e29_fwd" from="n_18.456118_-34.049363" to="n_18.456899_-34.047351" numLanes="1" speed="8.3333" name="Jeffcoat Avenue" shape="18.4565451,-34.0490076 18.4565713,-34.0489726 18.456584,-34.0489387"/>
  <edge id="e29_rev" from="n_18.456899_-34.047351" to="n_18.456118_-34.049363" numLanes="1" speed="8.3333" name="Jeffcoat Avenue" shape="18.456584,-34.0489387 18.4565713,-34.0489726 18.4565451,-34.0490076"/>
  <edge id="e30_fwd" from="n_18.456899_-34.047351" to="n_18.457098_-34.0464" numLanes="1" speed="8.3333" name="Jeffcoat Avenue"/>
  <edge id="e30_rev" from="n_18.457098_-34.0464" to="n_18.456899_-34.047351" numLanes="1" speed="8.3333" name="Jeffcoat Avenue"/>
  <edge id="e31_fwd" from="n_18.457098_-34.0464" to="n_18.457317_-34.045286" numLanes="1" speed="8.3333" name="Jeffcoat Avenue"/>
  <edge id="e31_rev" from="n_18.457317_-34.045286" to="n_18.457098_-34.0464" numLanes="1" speed="8.3333" name="Jeffcoat Avenue"/>
  <edge id="e32_fwd" from="n_18.457317_-34.045286" to="n_18.457542_-34.044197" numLanes="1" speed="8.3333" name="Jeffcoat Avenue"/>
  <edge id="e32_rev" from="n_18.457542_-34.044197" to="n_18.457317_-34.045286" numLanes="1" speed="8.3333" name="Jeffcoat Avenue"/>
  <edge id="e33_fwd" from="n_18.457542_-34.044197" to="n_18.457805_-34.042815" numLanes="1" speed="8.3333" name="Jeffcoat Avenue"/>
  <edge id="e33_rev" from="n_18.457805_-34.042815" to="n_18.457542_-34.044197" numLanes="1" speed="8.3333" name="Jeffcoat Avenue"/>
  <edge id="e34_fwd" from="n_18.457435_-34.050162" to="n_18.457692_-34.048874" numLanes="1" speed="8.3333" name="Eksteen Avenue"/>
  <edge id="e34_rev" from="n_18.457692_-34.048874" to="n_18.457435_-34.050162" numLanes="1" speed="8.3333" name="Eksteen Avenue"/>
  <edge id="e35_fwd" from="n_18.457692_-34.048874" to="n_18.458154_-34.046543" numLanes="1" speed="8.3333" name="Eksteen Avenue"/>
  <edge id="e35_rev" from="n_18.458154_-34.046543" to="n_18.457692_-34.048874" numLanes="1" speed="8.3333" name="Eksteen Avenue"/>
  <edge id="e36_fwd" from="n_18.458154_-34.046543" to="n_18.45837_-34.045497" numLanes="1" speed="8.3333" name="Eksteen Avenue"/>
  <edge id="e36_rev" from="n_18.45837_-34.045497" to="n_18.458154_-34.046543" numLanes="1" speed="8.3333" name="Eksteen Avenue"/>
  <edge id="e37_fwd" from="n_18.45837_-34.045497" to="n_18.458535_-34.044694" numLanes="1" speed="8.3333" name="Eksteen Avenue"/>
  <edge id="e37_rev" from="n_18.458535_-34.044694" to="n_18.45837_-34.045497" numLanes="1" speed="8.3333" name="Eksteen Avenue"/>
  <edge id="e38_fwd" from="n_18.458535_-34.044694" to="n_18.458606_-34.044342" numLanes="1" speed="8.3333" name="Eksteen Avenue"/>
  <edge id="e38_rev" from="n_18.458606_-34.044342" to="n_18.458535_-34.044694" numLanes="1" speed="8.3333" name="Eksteen Avenue"/>
  <edge id="e39_fwd" from="n_18.458606_-34.044342" to="n_18.458664_-34.044019" numLanes="1" speed="8.3333" name="Eksteen Avenue"/>
  <edge id="e39_rev" from="n_18.458664_-34.044019" to="n_18.458606_-34.044342" numLanes="1" speed="8.3333" name="Eksteen Avenue"/>
  <edge id="e40_fwd" from="n_18.458664_-34.044019" to="n_18.458744_-34.043555" numLanes="1" speed="8.3333" name="Eksteen Avenue"/>
  <edge id="e40_rev" from="n_18.458744_-34.043555" to="n_18.458664_-34.044019" numLanes="1" speed="8.3333" name="Eksteen Avenue"/>
  <edge id="e41_fwd" from="n_18.454228_-34.047412" to="n_18.454497_-34.04689" numLanes="2" speed="8.3333" name="Heerengracht Road" shape="18.4543258,-34.0473381 18.4544143,-34.0472246 18.4544546,-34.0471191"/>
  <edge id="e41_rev" from="n_18.454497_-34.04689" to="n_18.454228_-34.047412" numLanes="2" speed="8.3333" name="Heerengracht Road" shape="18.4544546,-34.0471191 18.4544143,-34.0472246 18.4543258,-34.0473381"/>
  <edge id="e42_fwd" from="n_18.454228_-34.047412" to="n_18.455199_-34.048585" numLanes="1" speed="8.3333" name="Silverhurst Way" shape="18.4542742,-34.0474521 18.4543282,-34.0474975 18.454354,-34.0475251 18.4543784,-34.0475751 18.4543774,-34.0476243 18.4543428,-34.0477857 18.4543412,-34.0478312 18.4543615,-34.0478793 18.4544264,-34.0479387"/>
  <edge id="e42_rev" from="n_18.455199_-34.048585" to="n_18.454228_-34.047412" numLanes="1" speed="8.3333" name="Silverhurst Way" shape="18.4544264,-34.0479387 18.4543615,-34.0478793 18.4543412,-34.0478312 18.4543428,-34.0477857 18.4543774,-34.0476243 18.4543784,-34.0475751 18.454354,-34.0475251 18.4543282,-34.0474975 18.4542742,-34.0474521"/>
  <edge id="e43_fwd" from="n_18.455199_-34.048585" to="n_18.455317_-34.048684" numLanes="1" speed="8.3333" name="Silverhurst Way"/>
  <edge id="e43_rev" from="n_18.455317_-34.048684" to="n_18.455199_-34.048585" numLanes="1" speed="8.3333" name="Silverhurst Way"/>
  <edge id="e44_fwd" from="n_18.455317_-34.048684" to="n_18.456118_-34.049363" numLanes="1" speed="8.3333" name="Silverhurst Way"/>
  <edge id="e44_rev" from="n_18.456118_-34.049363" to="n_18.455317_-34.048684" numLanes="1" speed="8.3333" name="Silverhurst Way"/>
  <edge id="e45_fwd" from="n_18.456118_-34.049363" to="n_18.457435_-34.050162" numLanes="1" speed="8.3333" name="Silverhurst Way" shape="18.4568918,-34.0500271 18.4569528,-34.0500643 18.4570286,-34.0500921 18.4571198,-34.0501132 18.4572465,-34.0501332"/>
  <edge id="e45_rev" from="n_18.457435_-34.050162" to="n_18.456118_-34.049363" numLanes="1" speed="8.3333" name="Silverhurst Way" shape="18.4572465,-34.0501332 18.4571198,-34.0501132 18.4570286,-34.0500921 18.4569528,-34.0500643 18.4568918,-34.0500271"/>
  <edge id="e46_fwd" from="n_18.45947_-34.051969" to="n_18.460275_-34.052506" numLanes="1" speed="8.3333" name="The Bend" shape="18.4594801,-34.0520188 18.4595036,-34.0520588 18.4595351,-34.0520955 18.4595948,-34.0521427 18.4596605,-34.0521872 18.4598246,-34.0522837 18.4600326,-34.0524022"/>
  <edge id="e46_rev" from="n_18.460275_-34.052506" to="n_18.45947_-34.051969" numLanes="1" speed="8.3333" name="The Bend" shape="18.4600326,-34.0524022 18.4598246,-34.0522837 18.4596605,-34.0521872 18.4595948,-34.0521427 18.4595351,-34.0520955 18.4595036,-34.0520588 18.4594801,-34.0520188"/>
  <edge id="e47_fwd" from="n_18.460275_-34.052506" to="n_18.461167_-34.052447" numLanes="1" speed="8.3333" name="The Bend" shape="18.4604732,-34.0525739 18.460551,-34.0525966 18.4606355,-34.0526139 18.4606945,-34.0526161 18.4607642,-34.0526116 18.4608413,-34.0525933 18.4609104,-34.0525689 18.4610432,-34.0525105"/>
  <edge id="e47_rev" from="n_18.461167_-34.052447" to="n_18.460275_-34.052506" numLanes="1" speed="8.3333" name="The Bend" shape="18.4610432,-34.0525105 18.4609104,-34.0525689 18.4608413,-34.0525933 18.4607642,-34.0526116 18.4606945,-34.0526161 18.4606355,-34.0526139 18.460551,-34.0525966 18.4604732,-34.0525739"/>
  <edge id="e48_fwd" from="n_18.452271_-34.042565" to="n_18.452754_-34.043598" numLanes="1" speed="8.3333" name="Fountain Road"/>
  <edge id="e48_rev" from="n_18.452754_-34.043598" to="n_18.452271_-34.042565" numLanes="1" speed="8.3333" name="Fountain Road"/>
  <edge id="e49_fwd" from="n_18.452754_-34.043598" to="n_18.453282_-34.044749" numLanes="1" speed="8.3333" name="Fountain Road" shape="18.4528584,-34.0438189"/>
  <edge id="e49_rev" from="n_18.453282_-34.044749" to="n_18.452754_-34.043598" numLanes="1" speed="8.3333" name="Fountain Road" shape="18.4528584,-34.0438189"/>
  <edge id="e50_fwd" from="n_18.453282_-34.044749" to="n_18.453467_-34.045159" numLanes="1" speed="8.3333" name="Fountain Road"/>
  <edge id="e50_rev" from="n_18.453467_-34.045159" to="n_18.453282_-34.044749" numLanes="1" speed="8.3333" name="Fountain Road"/>
  <edge id="e51_fwd" from="n_18.453467_-34.045159" to="n_18.454657_-34.046066" numLanes="1" speed="8.3333" name="Fountain Road" shape="18.4536581,-34.045544 18.453735,-34.0456729 18.4538367,-34.0457834 18.4539212,-34.0458557 18.4540272,-34.0459223 18.4541524,-34.0459759 18.4542859,-34.0460123 18.4545618,-34.0460527"/>
  <edge id="e51_rev" from="n_18.454657_-34.046066" to="n_18.453467_-34.045159" numLanes="1" speed="8.3333" name="Fountain Road" shape="18.4545618,-34.0460527 18.4542859,-34.0460123 18.4541524,-34.0459759 18.4540272,-34.0459223 18.4539212,-34.0458557 18.4538367,-34.0457834 18.453735,-34.0456729 18.4536581,-34.045544"/>
  <edge id="e52_fwd" from="n_18.455234_-34.043185" to="n_18.456262_-34.043014" numLanes="1" speed="8.3333" name="Longueville Way" shape="18.4553059,-34.0431743 18.4560797,-34.0430575 18.4561689,-34.0430392"/>
  <edge id="e52_rev" from="n_18.456262_-34.043014" to="n_18.455234_-34.043185" numLanes="1" speed="8.3333" name="Longueville Way" shape="18.4561689,-34.0430392 18.4560797,-34.0430575 18.4553059,-34.0431743"/>
  <edge id="e53_fwd" from="n_18.456262_-34.043014" to="n_18.456787_-34.042807" numLanes="1" speed="8.3333" name="Erica Place" shape="18.4564125,-34.0422532 18.4564319,-34.0421998 18.4564585,-34.0421606 18.4565094,-34.0421401 18.4565788,-34.0421335 18.4568248,-34.0421737 18.4568752,-34.0422129 18.4568921,-34.0422633"/>
  <edge id="e53_rev" from="n_18.456787_-34.042807" to="n_18.456262_-34.043014" numLanes="1" speed="8.3333" name="Erica Place" shape="18.4568921,-34.0422633 18.4568752,-34.0422129 18.4568248,-34.0421737 18.4565788,-34.0421335 18.4565094,-34.0421401 18.4564585,-34.0421606 18.4564319,-34.0421998 18.4564125,-34.0422532"/>
  <edge id="e54_fwd" from="n_18.460525_-34.039483" to="n_18.460274_-34.039229" numLanes="1" speed="8.3333" name="Oakridge Close" shape="18.460548,-34.0394975 18.4605688,-34.0395034 18.4605872,-34.0395009 18.4606038,-34.0394925 18.460611,-34.0394748 18.460616,-34.0394535 18.4605947,-34.0392742 18.4605818,-34.0392547 18.4605581,-34.0392363 18.4605335,-34.0392258 18.4605008,-34.0392192"/>
  <edge id="e54_rev" from="n_18.460274_-34.039229" to="n_18.460525_-34.039483" numLanes="1" speed="8.3333" name="Oakridge Close" shape="18.4605008,-34.0392192 18.4605335,-34.0392258 18.4605581,-34.0392363 18.4605818,-34.0392547 18.4605947,-34.0392742 18.460616,-34.0394535 18.460611,-34.0394748 18.4606038,-34.0394925 18.4605872,-34.0395009 18.4605688,-34.0395034 18.460548,-34.0394975"/>
  <edge id="e55_fwd" from="n_18.457355_-34.036169" to="n_18.459119_-34.038048" numLanes="1" speed="8.3333" name="Oakridge Avenue" shape="18.4573558,-34.0361974 18.4573606,-34.0362208 18.4573685,-34.036243 18.4573795,-34.0362657 18.4574148,-34.0363097 18.4575939,-34.0364874 18.4578905,-34.0367815 18.4584249,-34.0373296"/>
  <edge id="e55_rev" from="n_18.459119_-34.038048" to="n_18.457355_-34.036169" numLanes="1" speed="8.3333" name="Oakridge Avenue" shape="18.4584249,-34.0373296 18.4578905,-34.0367815 18.4575939,-34.0364874 18.4574148,-34.0363097 18.4573795,-34.0362657 18.4573685,-34.036243 18.4573606,-34.0362208 18.4573558,-34.0361974"/>
  <edge id="e56_fwd" from="n_18.458393_-34.038537" to="n_18.459119_-34.038048" numLanes="1" speed="8.3333" name="Oakridge Avenue"/>
  <edge id="e56_rev" from="n_18.459119_-34.038048" to="n_18.458393_-34.038537" numLanes="1" speed="8.3333" name="Oakridge Avenue"/>
  <edge id="e57_fwd" from="n_18.460111_-34.038003" to="n_18.460544_-34.037971" numLanes="1" speed="8.3333" name="Fern Close"/>
  <edge id="e57_rev" from="n_18.460544_-34.037971" to="n_18.460111_-34.038003" numLanes="1" speed="8.3333" name="Fern Close"/>
  <edge id="e58_fwd" from="n_18.455453_-34.034045" to="n_18.460111_-34.038003" numLanes="1" speed="8.3333" name="Caxton Way" shape="18.4555007,-34.0341029 18.455888,-34.0345675 18.4559422,-34.0346245 18.455991,-34.0346741 18.4560322,-34.0347072 18.4560823,-34.0347405 18.4561486,-34.0347655 18.4562301,-34.0347793 18.4570882,-34.0347382 18.4578703,-34.0345725 18.4583425,-34.0344769 18.4589374,-34.0344152 18.4598274,-34.0343698 18.4598777,-34.0343743 18.4599273,-34.0343893 18.4599661,-34.0344174 18.4599855,-34.0344562 18.4600623,-34.0351163 18.4601672,-34.0358982 18.46024,-34.0365891 18.4602432,-34.0366859 18.4602385,-34.0367328 18.4602174,-34.0368154 18.4600384,-34.0374202"/>
  <edge id="e58_rev" from="n_18.460111_-34.038003" to="n_18.455453_-34.034045" numLanes="1" speed="8.3333" name="Caxton Way" shape="18.4600384,-34.0374202 18.4602174,-34.0368154 18.4602385,-34.0367328 18.4602432,-34.0366859 18.46024,-34.0365891 18.4601672,-34.0358982 18.4600623,-34.0351163 18.4599855,-34.0344562 18.4599661,-34.0344174 18.4599273,-34.0343893 18.4598777,-34.0343743 18.4598274,-34.0343698 18.4589374,-34.0344152 18.4583425,-34.0344769 18.4578703,-34.0345725 18.4570882,-34.0347382 18.4562301,-34.0347793 18.4561486,-34.0347655 18.4560823,-34.0347405 18.4560322,-34.0347072 18.455991,-34.0346741 18.4559422,-34.0346245 18.455888,-34.0345675 18.4555007,-34.0341029"/>
  <edge id="e59_fwd" from="n_18.460111_-34.038003" to="n_18.459997_-34.038952" numLanes="1" speed="8.3333" name="Caxton Way" shape="18.460152,-34.0383786 18.460192,-34.0387421 18.4601809,-34.0387986 18.4601366,-34.0388549 18.460058,-34.0389124"/>
  <edge id="e59_rev" from="n_18.459997_-34.038952" to="n_18.460111_-34.038003" numLanes="1" speed="8.3333" name="Caxton Way" shape="18.460058,-34.0389124 18.4601366,-34.0388549 18.4601809,-34.0387986 18.460192,-34.0387421 18.460152,-34.0383786"/>
  <edge id="e60_fwd" from="n_18.450145_-34.037594" to="n_18.451514_-34.039492" numLanes="2" speed="8.3333" name="Rutherford Way" shape="18.4502486,-34.03779 18.4502788,-34.0378445 18.4503118,-34.0378884 18.4514107,-34.0392514 18.4514321,-34.0392936"/>
  <edge id="e60_rev" from="n_18.451514_-34.039492" to="n_18.450145_-34.037594" numLanes="2" speed="8.3333" name="Rutherford Way" shape="18.4514321,-34.0392936 18.4514107,-34.0392514 18.4503118,-34.0378884 18.4502788,-34.0378445 18.4502486,-34.03779"/>
  <edge id="e61_fwd" from="n_18.451514_-34.039492" to="n_18.451836_-34.040213" numLanes="2" speed="8.3333" name="Rutherford Way"/>
  <edge id="e61_rev" from="n_18.451836_-34.040213" to="n_18.451514_-34.039492" numLanes="2" speed="8.3333" name="Rutherford Way"/>
  <edge id="e62_fwd" from="n_18.449278_-34.037928" to="n_18.450016_-34.039942" numLanes="2" speed="16.6667" name="Ladies Mile Service Road" shape="18.4497576,-34.0385147 18.4501343,-34.0389758 18.4501515,-34.0390139 18.4501591,-34.0390405 18.4501591,-34.0390653 18.4501515,-34.0390957 18.4501381,-34.0391128 18.4501134,-34.03913 18.4497461,-34.0392422 18.4497234,-34.0392497 18.4496986,-34.0392614 18.4496807,-34.0392806 18.4496759,-34.0393066 18.4496813,-34.039338 18.4496891,-34.0393642"/>
  <edge id="e62_rev" from="n_18.450016_-34.039942" to="n_18.449278_-34.037928" numLanes="2" speed="16.6667" name="Ladies Mile Service Road" shape="18.4496891,-34.0393642 18.4496813,-34.039338 18.4496759,-34.0393066 18.4496807,-34.0392806 18.4496986,-34.0392614 18.4497234,-34.0392497 18.4497461,-34.0392422 18.4501134,-34.03913 18.4501381,-34.0391128 18.4501515,-34.0390957 18.4501591,-34.0390653 18.4501591,-34.0390405 18.4501515,-34.0390139 18.4501343,-34.0389758 18.4497576,-34.0385147"/>
  <edge id="e63_fwd" from="n_18.450016_-34.039942" to="n_18.450429_-34.040318" numLanes="2" speed="16.6667" name="Ladies Mile Service Road" shape="18.4501072,-34.0401168 18.4501299,-34.0401465 18.4501638,-34.040175"/>
  <edge id="e63_rev" from="n_18.450429_-34.040318" to="n_18.450016_-34.039942" numLanes="2" speed="16.6667" name="Ladies Mile Service Road" shape="18.4501638,-34.040175 18.4501299,-34.0401465 18.4501072,-34.0401168"/>
  <edge id="e64_fwd" from="n_18.450016_-34.039942" to="n_18.451514_-34.039492" numLanes="2" speed="8.3333" name="Fleming Way"/>
  <edge id="e64_rev" from="n_18.451514_-34.039492" to="n_18.450016_-34.039942" numLanes="2" speed="8.3333" name="Fleming Way"/>
  <edge id="e65_fwd" from="n_18.450429_-34.040318" to="n_18.451836_-34.040213" numLanes="2" speed="8.3333" name="Firgrove Way Service Road" shape="18.4507407,-34.0404999 18.4507891,-34.0405104 18.4508438,-34.0405146 18.4509028,-34.0405041 18.4517654,-34.0402347"/>
  <edge id="e65_rev" from="n_18.451836_-34.040213" to="n_18.450429_-34.040318" numLanes="2" speed="8.3333" name="Firgrove Way Service Road" shape="18.4517654,-34.0402347 18.4509028,-34.0405041 18.4508438,-34.0405146 18.4507891,-34.0405104 18.4507407,-34.0404999"/>
  <edge id="e66_fwd" from="n_18.451836_-34.040213" to="n_18.452719_-34.039941" numLanes="2" speed="8.3333" name="Firgrove Way Service Road"/>
  <edge id="e66_rev" from="n_18.452719_-34.039941" to="n_18.451836_-34.040213" numLanes="2" speed="8.3333" name="Firgrove Way Service Road"/>
  <edge id="e67_fwd" from="n_18.449421_-34.04111" to="n_18.449955_-34.040708" numLanes="1" speed="13.8889" name="Firgrove Way" shape="18.4495553,-34.0410531 18.4496411,-34.0410116 18.449708,-34.0409738 18.4497601,-34.0409403 18.4497845,-34.0409223 18.4498133,-34.040897 18.4498353,-34.0408741 18.4498547,-34.040853 18.449881,-34.0408175 18.4499008,-34.0407862 18.4499276,-34.0407376"/>
  <edge id="e68_fwd" from="n_18.450163_-34.041101" to="n_18.449421_-34.04111" numLanes="1" speed="13.8889" name="Firgrove Way" shape="18.4501118,-34.04108 18.4500779,-34.0410713 18.4500319,-34.0410603 18.4499803,-34.0410532 18.4499177,-34.0410465 18.4498588,-34.0410445 18.4497949,-34.0410457 18.4497139,-34.0410524 18.4496413,-34.0410599 18.4495695,-34.0410733"/>
  <edge id="e69_fwd" from="n_18.444198_-34.042741" to="n_18.445448_-34.042327" numLanes="2" speed="13.8889" name="Firgrove Way" shape="18.4443446,-34.042674 18.4445588,-34.0425968 18.4449008,-34.0424905"/>
  <edge id="e69_rev" from="n_18.445448_-34.042327" to="n_18.444198_-34.042741" numLanes="2" speed="13.8889" name="Firgrove Way" shape="18.4449008,-34.0424905 18.4445588,-34.0425968 18.4443446,-34.042674"/>
  <edge id="e70_fwd" from="n_18.446783_-34.034179" to="n_18.448958_-34.038047" numLanes="2" speed="8.3333" name="Ladies Mile Service Road" shape="18.4470778,-34.0346848 18.4473541,-34.0351856 18.4485983,-34.037409"/>
  <edge id="e70_rev" from="n_18.448958_-34.038047" to="n_18.446783_-34.034179" numLanes="2" speed="8.3333" name="Ladies Mile Service Road" shape="18.4485983,-34.037409 18.4473541,-34.0351856 18.4470778,-34.0346848"/>
  <edge id="e71_fwd" from="n_18.448816_-34.038102" to="n_18.448958_-34.038047" numLanes="2" speed="8.3333" name="Dalton Way" shape="18.4488718,-34.0380803"/>
  <edge id="e71_rev" from="n_18.448958_-34.038047" to="n_18.448816_-34.038102" numLanes="2" speed="8.3333" name="Dalton Way" shape="18.4488718,-34.0380803"/>
  <edge id="e72_fwd" from="n_18.450518_-34.041063" to="n_18.450605_-34.04159" numLanes="1" speed="16.6667" name="Ladies Mile Road" shape="18.4505078,-34.0411348 18.4505025,-34.0411767 18.4505035,-34.0412199 18.4505074,-34.0412628 18.4505159,-34.0413148 18.4505249,-34.0413451 18.4505399,-34.0413904 18.4505537,-34.0414301 18.4505678,-34.0414773"/>
  <edge id="e73_fwd" from="n_18.450605_-34.04159" to="n_18.450246_-34.041146" numLanes="1" speed="16.6667" name="Ladies Mile Road" shape="18.4505367,-34.0414757 18.45051,-34.0414306 18.4504791,-34.0413814 18.450457,-34.0413473 18.4504302,-34.0413102 18.4504056,-34.0412802 18.4503843,-34.0412573 18.450356,-34.0412291 18.4503321,-34.041208 18.4503019,-34.0411849 18.4502847,-34.0411731"/>
  <edge id="e74_fwd" from="n_18.457057_-34.038597" to="n_18.456991_-34.03891" numLanes="1" speed="16.6667" name="Wren Way"/>
  <edge id="e74_rev" from="n_18.456991_-34.03891" to="n_18.457057_-34.038597" numLanes="1" speed="16.6667" name="Wren Way"/>
  <edge id="e75_fwd" from="n_18.456991_-34.03891" to="n_18.456899_-34.039435" numLanes="1" speed="16.6667" name="Wren Way" shape="18.456898,-34.0393534 18.4568958,-34.0393975"/>
  <edge id="e75_rev" from="n_18.456899_-34.039435" to="n_18.456991_-34.03891" numLanes="1" speed="16.6667" name="Wren Way" shape="18.4568958,-34.0393975 18.456898,-34.0393534"/>
  <edge id="e76_fwd" from="n_18.456899_-34.039435" to="n_18.457421_-34.03966" numLanes="1" speed="16.6667" name="Wren Way" shape="18.4569085,-34.0394725 18.4569264,-34.0395085 18.4569703,-34.0395618 18.4570064,-34.0395859 18.4570532,-34.0396066 18.4573455,-34.0396533"/>