<?xml version="1.0" ?>
<nodes>
  <node id="n_18.455785_-34.047843" x="18.455785" y="-34.047843" type="priority"/>
  <node id="n_18.456343_-34.054271" x="18.456343" y="-34.054271" type="priority"/>
  <node id="n_18.459599_-34.04237" x="18.459599" y="-34.04237" type="priority"/>
  <node id="n_18.445384_-34.044037" x="18.445384" y="-34.044037" type="priority"/>
  <node id="n_18.441558_-34.056817" x="18.441558" y="-34.056817" type="priority"/>
  <node id="n_18.4569_-34.041593" x="18.4569" y="-34.041593" type="priority"/>
  <node id="n_18.441216_-34.057719" x="18.441216" y="-34.057719" type="priority"/>
  <node id="n_18.454409_-34.038595" x="18.454409" y="-34.038595" type="priority"/>
  <node id="n_18.446743_-34.054195" x="18.446743" y="-34.054195" type="priority"/>
  <node id="n_18.454385_-34.039082" x="18.454385" y="-34.039082" type="priority"/>
  <node id="n_18.464761_-34.043474" x="18.464761" y="-34.043474" type="priority"/>
  <node id="n_18.449498_-34.046295" x="18.449498" y="-34.046295" type="priority"/>
  <node id="n_18.458331_-34.038477" x="18.458331" y="-34.038477" type="priority"/>
  <node id="n_18.44896_-34.064143" x="18.44896" y="-34.064143" type="priority"/>
  <node id="n_18.46363_-34.05083" x="18.46363" y="-34.05083" type="priority"/>
  <node id="n_18.45932_-34.05439" x="18.45932" y="-34.05439" type="priority"/>
  <node id="n_18.455797_-34.038406" x="18.455797" y="-34.038406" type="priority"/>
  <node id="n_18.463234_-34.04337" x="18.463234" y="-34.04337" type="priority"/>
  <node id="n_18.453043_-34.048311" x="18.453043" y="-34.048311" type="priority"/>
  <node id="n_18.456262_-34.043014" x="18.456262" y="-34.043014" type="priority"/>
  <node id="n_18.456963_-34.057556" x="18.456963" y="-34.057556" type="priority"/>
  <node id="n_18.456885_-34.041673" x="18.456885" y="-34.041673" type="priority"/>
  <node id="n_18.452709_-34.049446" x="18.452709" y="-34.049446" type="priority"/>
  <node id="n_18.456025_-34.046247" x="18.456025" y="-34.046247" type="priority"/>
  <node id="n_18.464436_-34.046981" x="18.464436" y="-34.046981" type="priority"/>
  <node id="n_18.463719_-34.044479" x="18.463719" y="-34.044479" type="priority"/>
  <node id="n_18.463469_-34.04594" x="18.463469" y="-34.04594" type="priority"/>
  <node id="n_18.441102_-34.047502" x="18.441102" y="-34.047502" type="priority"/>
  <node id="n_18.451335_-34.052924" x="18.451335" y="-34.052924" type="priority"/>
  <node id="n_18.461561_-34.040048" x="18.461561" y="-34.040048" type="priority"/>
  <node id="n_18.44539_-34.045862" x="18.44539" y="-34.045862" type="priority"/>
  <node id="n_18.45837_-34.045497" x="18.45837" y="-34.045497" type="priority"/>
  <node id="n_18.455006_-34.038578" x="18.455006" y="-34.038578" type="priority"/>
  <node id="n_18.451381_-34.03781" x="18.451381" y="-34.03781" type="priority"/>
  <node id="n_18.45521_-34.055818" x="18.45521" y="-34.055818" type="priority"/>
  <node id="n_18.464706_-34.045786" x="18.464706" y="-34.045786" type="priority"/>
  <node id="n_18.464222_-34.041388" x="18.464222" y="-34.041388" type="priority"/>
  <node id="n_18.455761_-34.046214" x="18.455761" y="-34.046214" type="priority"/>
  <node id="n_18.452426_-34.047575" x="18.452426" y="-34.047575" type="priority"/>
  <node id="n_18.462962_-34.0497" x="18.462962" y="-34.0497" type="priority"/>
  <node id="n_18.440808_-34.044632" x="18.440808" y="-34.044632" type="priority"/>
  <node id="n_18.450974_-34.048966" x="18.450974" y="-34.048966" type="priority"/>
  <node id="n_18.454645_-34.048568" x="18.454645" y="-34.048568" type="priority"/>
  <node id="n_18.453997_-34.048166" x="18.453997" y="-34.048166" type="priority"/>
  <node id="n_18.451102_-34.050291" x="18.451102" y="-34.050291" type="priority"/>
  <node id="n_18.453865_-34.050497" x="18.453865" y="-34.050497" type="priority"/>
  <node id="n_18.46187_-34.038004" x="18.46187" y="-34.038004" type="priority"/>
  <node id="n_18.463552_-34.058946" x="18.463552" y="-34.058946" type="priority"/>
  <node id="n_18.461581_-34.052433" x="18.461581" y="-34.052433" type="priority"/>
  <node id="n_18.442026_-34.03939" x="18.442026" y="-34.03939" type="priority"/>
  <node id="n_18.454304_-34.049126" x="18.454304" y="-34.049126" type="priority"/>
  <node id="n_18.441288_-34.056441" x="18.441288" y="-34.056441" type="priority"/>
  <node id="n_18.462829_-34.049296" x="18.462829" y="-34.049296" type="priority"/>
  <node id="n_18.44977_-34.043909" x="18.44977" y="-34.043909" type="priority"/>
  <node id="n_18.464714_-34.053814" x="18.464714" y="-34.053814" type="priority"/>
  <node id="n_18.443736_-34.056134" x="18.443736" y="-34.056134" type="priority"/>
  <node id="n_18.458616_-34.051696" x="18.458616" y="-34.051696" type="priority"/>
  <node id="n_18.46159_-34.050786" x="18.46159" y="-34.050786" type="priority"/>
  <node id="n_18.44643_-34.046242" x="18.44643" y="-34.046242" type="priority"/>
  <node id="n_18.464929_-34.038277" x="18.464929" y="-34.038277" type="priority"/>
  <node id="n_18.446278_-34.04708" x="18.446278" y="-34.04708" type="priority"/>
  <node id="n_18.460989_-34.040608" x="18.460989" y="-34.040608" type="priority"/>
  <node id="n_18.457355_-34.036169" x="18.457355" y="-34.036169" type="priority"/>
  <node id="n_18.455453_-34.034045" x="18.455453" y="-34.034045" type="priority"/>
  <node id="n_18.454228_-34.047412" x="18.454228" y="-34.047412" type="priority"/>
  <node id="n_18.458086_-34.054329" x="18.458086" y="-34.054329" type="priority"/>
  <node id="n_18.452271_-34.042565" x="18.452271" y="-34.042565" type="priority"/>
  <node id="n_18.457426_-34.055799" x="18.457426" y="-34.055799" type="priority"/>
  <node id="n_18.460812_-34.057014" x="18.460812" y="-34.057014" type="priority"/>
  <node id="n_18.447858_-34.041745" x="18.447858" y="-34.041745" type="priority"/>
  <node id="n_18.456178_-34.040433" x="18.456178" y="-34.040433" type="priority"/>
  <node id="n_18.460667_-34.052323" x="18.460667" y="-34.052323" type="priority"/>
  <node id="n_18.443835_-34.04182" x="18.443835" y="-34.04182" type="priority"/>
  <node id="n_18.450179_-34.045396" x="18.450179" y="-34.045396" type="priority"/>
  <node id="n_18.45599_-34.049815" x="18.45599" y="-34.049815" type="priority"/>
  <node id="n_18.46003_-34.043187" x="18.46003" y="-34.043187" type="priority"/>
  <node id="n_18.462635_-34.047083" x="18.462635" y="-34.047083" type="priority"/>
  <node id="n_18.44235_-34.049994" x="18.44235" y="-34.049994" type="priority"/>
  <node id="n_18.454377_-34.04822" x="18.454377" y="-34.04822" type="priority"/>
  <node id="n_18.463079_-34.049587" x="18.463079" y="-34.049587" type="priority"/>
  <node id="n_18.455451_-34.054467" x="18.455451" y="-34.054467" type="priority"/>
  <node id="n_18.465107_-34.044007" x="18.465107" y="-34.044007" type="priority"/>
  <node id="n_18.463305_-34.050878" x="18.463305" y="-34.050878" type="priority"/>
  <node id="n_18.463066_-34.044384" x="18.463066" y="-34.044384" type="priority"/>
  <node id="n_18.462239_-34.057252" x="18.462239" y="-34.057252" type="priority"/>
  <node id="n_18.455914_-34.046122" x="18.455914" y="-34.046122" type="priority"/>
  <node id="n_18.464163_-34.040305" x="18.464163" y="-34.040305" type="priority"/>
  <node id="n_18.449249_-34.048545" x="18.449249" y="-34.048545" type="priority"/>
  <node id="n_18.44808_-34.046716" x="18.44808" y="-34.046716" type="priority"/>
  <node id="n_18.459132_-34.048521" x="18.459132" y="-34.048521" type="priority"/>
  <node id="n_18.447309_-34.051039" x="18.447309" y="-34.051039" type="priority"/>
  <node id="n_18.460161_-34.04299" x="18.460161" y="-34.04299" type="priority"/>
  <node id="n_18.463568_-34.043956" x="18.463568" y="-34.043956" type="priority"/>
  <node id="n_18.4622_-34.057224" x="18.4622" y="-34.057224" type="priority"/>
  <node id="n_18.440514_-34.050439" x="18.440514" y="-34.050439" type="priority"/>
  <node id="n_18.46399_-34.042099" x="18.46399" y="-34.042099" type="priority"/>
  <node id="n_18.44695_-34.048916" x="18.44695" y="-34.048916" type="priority"/>
  <node id="n_18.458535_-34.044694" x="18.458535" y="-34.044694" type="priority"/>
  <node id="n_18.462718_-34.0467" x="18.462718" y="-34.0467" type="priority"/>
  <node id="n_18.463612_-34.050526" x="18.463612" y="-34.050526" type="priority"/>
  <node id="n_18.466268_-34.053978" x="18.466268" y="-34.053978" type="priority"/>
  <node id="n_18.461091_-34.055705" x="18.461091" y="-34.055705" type="priority"/>
  <node id="n_18.44599_-34.043206" x="18.44599" y="-34.043206" type="priority"/>
  <node id="n_18.460678_-34.056941" x="18.460678" y="-34.056941" type="priority"/>
  <node id="n_18.462126_-34.036428" x="18.462126" y="-34.036428" type="priority"/>
  <node id="n_18.442166_-34.041164" x="18.442166" y="-34.041164" type="priority"/>
  <node id="n_18.44343_-34.043352" x="18.44343" y="-34.043352" type="priority"/>
  <node id="n_18.44987_-34.049227" x="18.44987" y="-34.049227" type="priority"/>
  <node id="n_18.461113_-34.051117" x="18.461113" y="-34.051117" type="priority"/>
  <node id="n_18.45591_-34.040394" x="18.45591" y="-34.040394" type="priority"/>
  <node id="n_18.457187_-34.040892" x="18.457187" y="-34.040892" type="priority"/>
  <node id="n_18.452588_-34.040271" x="18.452588" y="-34.040271" type="priority"/>
  <node id="n_18.449438_-34.04041" x="18.449438" y="-34.04041" type="priority"/>
  <node id="n_18.441213_-34.048455" x="18.441213" y="-34.048455" type="priority"/>
  <node id="n_18.462636_-34.044904" x="18.462636" y="-34.044904" type="priority"/>
  <node id="n_18.450016_-34.039942" x="18.450016" y="-34.039942" type="priority"/>
  <node id="n_18.445389_-34.043382" x="18.445389" y="-34.043382" type="priority"/>
  <node id="n_18.462844_-34.055296" x="18.462844" y="-34.055296" type="priority"/>
  <node id="n_18.437159_-34.049894" x="18.437159" y="-34.049894" type="priority"/>
  <node id="n_18.464279_-34.055827" x="18.464279" y="-34.055827" type="priority"/>
  <node id="n_18.461001_-34.049174" x="18.461001" y="-34.049174" type="priority"/>
  <node id="n_18.457692_-34.048874" x="18.457692" y="-34.048874" type="priority"/>
  <node id="n_18.45679_-34.055656" x="18.45679" y="-34.055656" type="priority"/>
  <node id="n_18.457298_-34.052879" x="18.457298" y="-34.052879" type="priority"/>
  <node id="n_18.432964_-34.044173" x="18.432964" y="-34.044173" type="priority"/>
  <node id="n_18.452612_-34.053158" x="18.452612" y="-34.053158" type="priority"/>
  <node id="n_18.464206_-34.056242" x="18.464206" y="-34.056242" type="priority"/>
  <node id="n_18.443896_-34.056029" x="18.443896" y="-34.056029" type="priority"/>
  <node id="n_18.445221_-34.044519" x="18.445221" y="-34.044519" type="priority"/>
  <node id="n_18.455567_-34.041471" x="18.455567" y="-34.041471" type="priority"/>
  <node id="n_18.456641_-34.038857" x="18.456641" y="-34.038857" type="priority"/>
  <node id="n_18.453587_-34.048444" x="18.453587" y="-34.048444" type="priority"/>
  <node id="n_18.461892_-34.050806" x="18.461892" y="-34.050806" type="priority"/>
  <node id="n_18.45479_-34.04844" x="18.45479" y="-34.04844" type="priority"/>
  <node id="n_18.453928_-34.039628" x="18.453928" y="-34.039628" type="priority"/>
  <node id="n_18.461045_-34.042475" x="18.461045" y="-34.042475" type="priority"/>
  <node id="n_18.458825_-34.052665" x="18.458825" y="-34.052665" type="priority"/>
  <node id="n_18.465473_-34.042819" x="18.465473" y="-34.042819" type="priority"/>
  <node id="n_18.454799_-34.049543" x="18.454799" y="-34.049543" type="priority"/>
  <node id="n_18.438768_-34.041919" x="18.438768" y="-34.041919" type="priority"/>
  <node id="n_18.464173_-34.043862" x="18.464173" y="-34.043862" type="priority"/>
  <node id="n_18.46491_-34.044878" x="18.46491" y="-34.044878" type="priority"/>
  <node id="n_18.456209_-34.054086" x="18.456209" y="-34.054086" type="priority"/>
  <node id="n_18.461389_-34.051012" x="18.461389" y="-34.051012" type="priority"/>
  <node id="n_18.456355_-34.038353" x="18.456355" y="-34.038353" type="priority"/>
  <node id="n_18.459978_-34.056506" x="18.459978" y="-34.056506" type="priority"/>
  <node id="n_18.444198_-34.042741" x="18.444198" y="-34.042741" type="priority"/>
  <node id="n_18.461276_-34.052249" x="18.461276" y="-34.052249" type="priority"/>
  <node id="n_18.447625_-34.038841" x="18.447625" y="-34.038841" type="priority"/>
  <node id="n_18.462221_-34.057699" x="18.462221" y="-34.057699" type="priority"/>
  <node id="n_18.462162_-34.041583" x="18.462162" y="-34.041583" type="priority"/>
  <node id="n_18.463419_-34.048797" x="18.463419" y="-34.048797" type="priority"/>
  <node id="n_18.455936_-34.038351" x="18.455936" y="-34.038351" type="priority"/>
  <node id="n_18.453981_-34.054677" x="18.453981" y="-34.054677" type="priority"/>
  <node id="n_18.465053_-34.041516" x="18.465053" y="-34.041516" type="priority"/>
  <node id="n_18.463879_-34.045151" x="18.463879" y="-34.045151" type="priority"/>
  <node id="n_18.451026_-34.044179" x="18.451026" y="-34.044179" type="priority"/>
  <node id="n_18.464836_-34.038911" x="18.464836" y="-34.038911" type="priority"/>
  <node id="n_18.463734_-34.045798" x="18.463734" y="-34.045798" type="priority"/>
  <node id="n_18.464385_-34.049799" x="18.464385" y="-34.049799" type="priority"/>
  <node id="n_18.453745_-34.05443" x="18.453745" y="-34.05443" type="priority"/>
  <node id="n_18.456951_-34.041343" x="18.456951" y="-34.041343" type="priority"/>
  <node id="n_18.451382_-34.051969" x="18.451382" y="-34.051969" type="priority"/>
  <node id="n_18.455919_-34.05668" x="18.455919" y="-34.05668" type="priority"/>
  <node id="n_18.462822_-34.046225" x="18.462822" y="-34.046225" type="priority"/>
  <node id="n_18.458852_-34.056294" x="18.458852" y="-34.056294" type="priority"/>
  <node id="n_18.459119_-34.038048" x="18.459119" y="-34.038048" type="priority"/>
  <node id="n_18.444873_-34.043726" x="18.444873" y="-34.043726" type="priority"/>
  <node id="n_18.44534_-34.042837" x="18.44534" y="-34.042837" type="priority"/>
  <node id="n_18.464919_-34.044836" x="18.464919" y="-34.044836" type="priority"/>
  <node id="n_18.462503_-34.05773" x="18.462503" y="-34.05773" type="priority"/>
  <node id="n_18.464764_-34.045527" x="18.464764" y="-34.045527" type="priority"/>
  <node id="n_18.446998_-34.042009" x="18.446998" y="-34.042009" type="priority"/>
  <node id="n_18.458912_-34.041143" x="18.458912" y="-34.041143" type="priority"/>
  <node id="n_18.458138_-34.05632" x="18.458138" y="-34.05632" type="priority"/>
  <node id="n_18.459997_-34.038952" x="18.459997" y="-34.038952" type="priority"/>
  <node id="n_18.456366_-34.041594" x="18.456366" y="-34.041594" type="priority"/>
  <node id="n_18.463691_-34.050865" x="18.463691" y="-34.050865" type="priority"/>
  <node id="n_18.453362_-34.039668" x="18.453362" y="-34.039668" type="priority"/>
  <node id="n_18.456899_-34.039435" x="18.456899" y="-34.039435" type="priority"/>
  <node id="n_18.450736_-34.043802" x="18.450736" y="-34.043802" type="priority"/>
  <node id="n_18.454656_-34.039939" x="18.454656" y="-34.039939" type="priority"/>
  <node id="n_18.444886_-34.058607" x="18.444886" y="-34.058607" type="priority"/>
  <node id="n_18.443852_-34.038065" x="18.443852" y="-34.038065" type="priority"/>
  <node id="n_18.459462_-34.05827" x="18.459462" y="-34.05827" type="priority"/>
  <node id="n_18.446782_-34.03907" x="18.446782" y="-34.03907" type="priority"/>
  <node id="n_18.460274_-34.039229" x="18.460274" y="-34.039229" type="priority"/>
  <node id="n_18.463456_-34.05694" x="18.463456" y="-34.05694" type="priority"/>
  <node id="n_18.450298_-34.047753" x="18.450298" y="-34.047753" type="priority"/>
  <node id="n_18.460647_-34.046906" x="18.460647" y="-34.046906" type="priority"/>
  <node id="n_18.463826_-34.044727" x="18.463826" y="-34.044727" type="priority"/>
  <node id="n_18.456321_-34.055702" x="18.456321" y="-34.055702" type="priority"/>
  <node id="n_18.448701_-34.040776" x="18.448701" y="-34.040776" type="priority"/>
  <node id="n_18.463692_-34.052045" x="18.463692" y="-34.052045" type="priority"/>
  <node id="n_18.448662_-34.038558" x="18.448662" y="-34.038558" type="priority"/>
  <node id="n_18.463293_-34.045908" x="18.463293" y="-34.045908" type="priority"/>
  <node id="n_18.45354_-34.048482" x="18.45354" y="-34.048482" type="priority"/>
  <node id="n_18.464146_-34.048258" x="18.464146" y="-34.048258" type="priority"/>
  <node id="n_18.459784_-34.050513" x="18.459784" y="-34.050513" type="priority"/>
  <node id="n_18.465834_-34.043639" x="18.465834" y="-34.043639" type="priority"/>
  <node id="n_18.463742_-34.051049" x="18.463742" y="-34.051049" type="priority"/>
  <node id="n_18.464014_-34.041745" x="18.464014" y="-34.041745" type="priority"/>
  <node id="n_18.464962_-34.045076" x="18.464962" y="-34.045076" type="priority"/>
  <node id="n_18.450246_-34.041146" x="18.450246" y="-34.041146" type="priority"/>
  <node id="n_18.440879_-34.049398" x="18.440879" y="-34.049398" type="priority"/>
  <node id="n_18.459226_-34.057838" x="18.459226" y="-34.057838" type="priority"/>
  <node id="n_18.458231_-34.055438" x="18.458231" y="-34.055438" type="priority"/>
  <node id="n_18.451778_-34.044112" x="18.451778" y="-34.044112" type="priority"/>
  <node id="n_18.460687_-34.044636" x="18.460687" y="-34.044636" type="priority"/>
  <node id="n_18.462525_-34.05063" x="18.462525" y="-34.05063" type="priority"/>
  <node id="n_18.454581_-34.048622" x="18.454581" y="-34.048622" type="priority"/>
  <node id="n_18.45477_-34.049519" x="18.45477" y="-34.049519" type="priority"/>
  <node id="n_18.456045_-34.041544" x="18.456045" y="-34.041544" type="priority"/>
  <node id="n_18.453527_-34.047878" x="18.453527" y="-34.047878" type="priority"/>
  <node id="n_18.453238_-34.054744" x="18.453238" y="-34.054744" type="priority"/>
  <node id="n_18.455917_-34.038424" x="18.455917" y="-34.038424" type="priority"/>
  <node id="n_18.452436_-34.045018" x="18.452436" y="-34.045018" type="priority"/>
  <node id="n_18.442661_-34.049186" x="18.442661" y="-34.049186" type="priority"/>
  <node id="n_18.462289_-34.050197" x="18.462289" y="-34.050197" type="priority"/>
  <node id="n_18.448459_-34.04085" x="18.448459" y="-34.04085" type="priority"/>
  <node id="n_18.451294_-34.047264" x="18.451294" y="-34.047264" type="priority"/>
  <node id="n_18.45969_-34.042103" x="18.45969" y="-34.042103" type="priority"/>
  <node id="n_18.46543_-34.045252" x="18.46543" y="-34.045252" type="priority"/>
  <node id="n_18.454203_-34.050796" x="18.454203" y="-34.050796" type="priority"/>
  <node id="n_18.445674_-34.036842" x="18.445674" y="-34.036842" type="priority"/>
  <node id="n_18.446068_-34.048041" x="18.446068" y="-34.048041" type="priority"/>
  <node id="n_18.460615_-34.055782" x="18.460615" y="-34.055782" type="priority"/>
  <node id="n_18.44833_-34.040587" x="18.44833" y="-34.040587" type="priority"/>
  <node id="n_18.464976_-34.044584" x="18.464976" y="-34.044584" type="priority"/>
  <node id="n_18.460111_-34.038003" x="18.460111" y="-34.038003" type="priority"/>
  <node id="n_18.456209_-34.055713" x="18.456209" y="-34.055713" type="priority"/>
  <node id="n_18.463936_-34.042091" x="18.463936" y="-34.042091" type="priority"/>
  <node id="n_18.461886_-34.052549" x="18.461886" y="-34.052549" type="priority"/>
  <node id="n_18.464277_-34.039759" x="18.464277" y="-34.039759" type="priority"/>
  <node id="n_18.456595_-34.050295" x="18.456595" y="-34.050295" type="priority"/>
  <node id="n_18.460204_-34.059277" x="18.460204" y="-34.059277" type="priority"/>
  <node id="n_18.460054_-34.058039" x="18.460054" y="-34.058039" type="priority"/>
  <node id="n_18.440494_-34.03793" x="18.440494" y="-34.03793" type="priority"/>
  <node id="n_18.464446_-34.041526" x="18.464446" y="-34.041526" type="priority"/>
  <node id="n_18.464674_-34.045932" x="18.464674" y="-34.045932" type="priority"/>
  <node id="n_18.454492_-34.042012" x="18.454492" y="-34.042012" type="priority"/>
  <node id="n_18.459039_-34.050406" x="18.459039" y="-34.050406" type="priority"/>
  <node id="n_18.460796_-34.054296" x="18.460796" y="-34.054296" type="priority"/>
  <node id="n_18.453386_-34.048353" x="18.453386" y="-34.048353" type="priority"/>
  <node id="n_18.443882_-34.043094" x="18.443882" y="-34.043094" type="priority"/>
  <node id="n_18.45895_-34.047661" x="18.45895" y="-34.047661" type="priority"/>
  <node id="n_18.464751_-34.043854" x="18.464751" y="-34.043854" type="priority"/>
  <node id="n_18.456964_-34.041279" x="18.456964" y="-34.041279" type="priority"/>
  <node id="n_18.463661_-34.051182" x="18.463661" y="-34.051182" type="priority"/>
  <node id="n_18.442229_-34.044639" x="18.442229" y="-34.044639" type="priority"/>
  <node id="n_18.444862_-34.038971" x="18.444862" y="-34.038971" type="priority"/>
  <node id="n_18.455993_-34.041797" x="18.455993" y="-34.041797" type="priority"/>
  <node id="n_18.447216_-34.03525" x="18.447216" y="-34.03525" type="priority"/>
  <node id="n_18.44193_-34.050853" x="18.44193" y="-34.050853" type="priority"/>
  <node id="n_18.462977_-34.049782" x="18.462977" y="-34.049782" type="priority"/>
  <node id="n_18.450243_-34.051135" x="18.450243" y="-34.051135" type="priority"/>
  <node id="n_18.45754_-34.051566" x="18.45754" y="-34.051566" type="priority"/>
  <node id="n_18.461424_-34.054081" x="18.461424" y="-34.054081" type="priority"/>
  <node id="n_18.456394_-34.041094" x="18.456394" y="-34.041094" type="priority"/>
  <node id="n_18.46279_-34.048034" x="18.46279" y="-34.048034" type="priority"/>
  <node id="n_18.463345_-34.043921" x="18.463345" y="-34.043921" type="priority"/>
  <node id="n_18.452017_-34.0419" x="18.452017" y="-34.0419" type="priority"/>
  <node id="n_18.458204_-34.052129" x="18.458204" y="-34.052129" type="priority"/>
  <node id="n_18.463532_-34.043094" x="18.463532" y="-34.043094" type="priority"/>
  <node id="n_18.457819_-34.051331" x="18.457819" y="-34.051331" type="priority"/>
  <node id="n_18.462116_-34.058244" x="18.462116" y="-34.058244" type="priority"/>
  <node id="n_18.446227_-34.056783" x="18.446227" y="-34.056783" type="priority"/>
  <node id="n_18.457998_-34.041845" x="18.457998" y="-34.041845" type="priority"/>
  <node id="n_18.45851_-34.038653" x="18.45851" y="-34.038653" type="priority"/>
  <node id="n_18.455198_-34.039239" x="18.455198" y="-34.039239" type="priority"/>
  <node id="n_18.445662_-34.04395" x="18.445662" y="-34.04395" type="priority"/>
  <node id="n_18.450343_-34.040619" x="18.450343" y="-34.040619" type="priority"/>
  <node id="n_18.46204_-34.050025" x="18.46204" y="-34.050025" type="priority"/>
  <node id="n_18.462712_-34.04096" x="18.462712" y="-34.04096" type="priority"/>
  <node id="n_18.464519_-34.041433" x="18.464519" y="-34.041433" type="priority"/>
  <node id="n_18.460501_-34.046889" x="18.460501" y="-34.046889" type="priority"/>
  <node id="n_18.441503_-34.056742" x="18.441503" y="-34.056742" type="priority"/>
  <node id="n_18.459056_-34.053543" x="18.459056" y="-34.053543" type="priority"/>
  <node id="n_18.455242_-34.039045" x="18.455242" y="-34.039045" type="priority"/>
  <node id="n_18.445374_-34.040829" x="18.445374" y="-34.040829" type="priority"/>
  <node id="n_18.459187_-34.047697" x="18.459187" y="-34.047697" type="priority"/>
  <node id="n_18.45857_-34.050334" x="18.45857" y="-34.050334" type="priority"/>
  <node id="n_18.456791_-34.039421" x="18.456791" y="-34.039421" type="priority"/>
  <node id="n_18.453459_-34.041428" x="18.453459" y="-34.041428" type="priority"/>
  <node id="n_18.465123_-34.055775" x="18.465123" y="-34.055775" type="priority"/>
  <node id="n_18.451441_-34.04284" x="18.451441" y="-34.04284" type="priority"/>
  <node id="n_18.454063_-34.044195" x="18.454063" y="-34.044195" type="priority"/>
  <node id="n_18.454909_-34.049637" x="18.454909" y="-34.049637" type="priority"/>
  <node id="n_18.463218_-34.050522" x="18.463218" y="-34.050522" type="priority"/>
  <node id="n_18.45691_-34.038899" x="18.45691" y="-34.038899" type="priority"/>
  <node id="n_18.457652_-34.056225" x="18.457652" y="-34.056225" type="priority"/>
  <node id="n_18.462724_-34.042557" x="18.462724" y="-34.042557" type="priority"/>
  <node id="n_18.463749_-34.042172" x="18.463749" y="-34.042172" type="priority"/>
  <node id="n_18.455847_-34.039319" x="18.455847" y="-34.039319" type="priority"/>
  <node id="n_18.446629_-34.038269" x="18.446629" y="-34.038269" type="priority"/>
  <node id="n_18.46502_-34.044393" x="18.46502" y="-34.044393" type="priority"/>
  <node id="n_18.463582_-34.045776" x="18.463582" y="-34.045776" type="priority"/>
  <node id="n_18.446656_-34.053877" x="18.446656" y="-34.053877" type="priority"/>
  <node id="n_18.461845_-34.04008" x="18.461845" y="-34.04008" type="priority"/>
  <node id="n_18.460544_-34.037971" x="18.460544" y="-34.037971" type="priority"/>
  <node id="n_18.462402_-34.04063" x="18.462402" y="-34.04063" type="priority"/>
  <node id="n_18.442317_-34.041461" x="18.442317" y="-34.041461" type="priority"/>
  <node id="n_18.452196_-34.047378" x="18.452196" y="-34.047378" type="priority"/>
  <node id="n_18.444575_-34.057077" x="18.444575" y="-34.057077" type="priority"/>
  <node id="n_18.451866_-34.047081" x="18.451866" y="-34.047081" type="priority"/>
  <node id="n_18.449278_-34.037928" x="18.449278" y="-34.037928" type="priority"/>
  <node id="n_18.463535_-34.046287" x="18.463535" y="-34.046287" type="priority"/>
  <node id="n_18.463905_-34.050831" x="18.463905" y="-34.050831" type="priority"/>
  <node id="n_18.456215_-34.040275" x="18.456215" y="-34.040275" type="priority"/>
  <node id="n_18.446801_-34.045226" x="18.446801" y="-34.045226" type="priority"/>
  <node id="n_18.442671_-34.047855" x="18.442671" y="-34.047855" type="priority"/>
  <node id="n_18.465709_-34.038994" x="18.465709" y="-34.038994" type="priority"/>
  <node id="n_18.465024_-34.042584" x="18.465024" y="-34.042584" type="priority"/>
  <node id="n_18.448685_-34.041333" x="18.448685" y="-34.041333" type="priority"/>
  <node id="n_18.450016_-34.052454" x="18.450016" y="-34.052454" type="priority"/>
  <node id="n_18.452033_-34.047028" x="18.452033" y="-34.047028" type="priority"/>
  <node id="n_18.463138_-34.046113" x="18.463138" y="-34.046113" type="priority"/>
  <node id="n_18.46467_-34.048344" x="18.46467" y="-34.048344" type="priority"/>
  <node id="n_18.442232_-34.041334" x="18.442232" y="-34.041334" type="priority"/>
  <node id="n_18.463267_-34.046006" x="18.463267" y="-34.046006" type="priority"/>
  <node id="n_18.453228_-34.048153" x="18.453228" y="-34.048153" type="priority"/>
  <node id="n_18.461729_-34.040067" x="18.461729" y="-34.040067" type="priority"/>
  <node id="n_18.464859_-34.053828" x="18.464859" y="-34.053828" type="priority"/>
  <node id="n_18.464713_-34.04742" x="18.464713" y="-34.04742" type="priority"/>
  <node id="n_18.460711_-34.03476" x="18.460711" y="-34.03476" type="priority"/>
  <node id="n_18.459707_-34.044849" x="18.459707" y="-34.044849" type="priority"/>
  <node id="n_18.455662_-34.040981" x="18.455662" y="-34.040981" type="priority"/>
  <node id="n_18.435234_-34.045717" x="18.435234" y="-34.045717" type="priority"/>
  <node id="n_18.462514_-34.050113" x="18.462514" y="-34.050113" type="priority"/>
  <node id="n_18.45892_-34.045649" x="18.45892" y="-34.045649" type="priority"/>
  <node id="n_18.45524_-34.048548" x="18.45524" y="-34.048548" type="priority"/>
  <node id="n_18.462358_-34.049269" x="18.462358" y="-34.049269" type="priority"/>
  <node id="n_18.455567_-34.038218" x="18.455567" y="-34.038218" type="priority"/>
  <node id="n_18.463773_-34.042064" x="18.463773" y="-34.042064" type="priority"/>
  <node id="n_18.456428_-34.040945" x="18.456428" y="-34.040945" type="priority"/>
  <node id="n_18.46395_-34.04028" x="18.46395" y="-34.04028" type="priority"/>
  <node id="n_18.464882_-34.054591" x="18.464882" y="-34.054591" type="priority"/>
  <node id="n_18.463725_-34.05359" x="18.463725" y="-34.05359" type="priority"/>
  <node id="n_18.453182_-34.039509" x="18.453182" y="-34.039509" type="priority"/>
  <node id="n_18.464847_-34.044643" x="18.464847" y="-34.044643" type="priority"/>
  <node id="n_18.457542_-34.044197" x="18.457542" y="-34.044197" type="priority"/>
  <node id="n_18.463722_-34.051186" x="18.463722" y="-34.051186" type="priority"/>
  <node id="n_18.46314_-34.04953" x="18.46314" y="-34.04953" type="priority"/>
  <node id="n_18.458664_-34.044019" x="18.458664" y="-34.044019" type="priority"/>
  <node id="n_18.438792_-34.052873" x="18.438792" y="-34.052873" type="priority"/>
  <node id="n_18.464271_-34.043399" x="18.464271" y="-34.043399" type="priority"/>
  <node id="n_18.457774_-34.038884" x="18.457774" y="-34.038884" type="priority"/>
  <node id="n_18.463153_-34.043991" x="18.463153" y="-34.043991" type="priority"/>
  <node id="n_18.461118_-34.051649" x="18.461118" y="-34.051649" type="priority"/>
  <node id="n_18.468754_-34.050838" x="18.468754" y="-34.050838" type="priority"/>
  <node id="n_18.450429_-34.040318" x="18.450429" y="-34.040318" type="priority"/>
  <node id="n_18.45326_-34.043434" x="18.45326" y="-34.043434" type="priority"/>
  <node id="n_18.441082_-34.057918" x="18.441082" y="-34.057918" type="priority"/>
  <node id="n_18.446634_-34.044858" x="18.446634" y="-34.044858" type="priority"/>
  <node id="n_18.464632_-34.046117" x="18.464632" y="-34.046117" type="priority"/>
  <node id="n_18.456245_-34.040115" x="18.456245" y="-34.040115" type="priority"/>
  <node id="n_18.462639_-34.039202" x="18.462639" y="-34.039202" type="priority"/>
  <node id="n_18.464235_-34.047864" x="18.464235" y="-34.047864" type="priority"/>
  <node id="n_18.453166_-34.041519" x="18.453166" y="-34.041519" type="priority"/>
  <node id="n_18.45595_-34.038286" x="18.45595" y="-34.038286" type="priority"/>
  <node id="n_18.460415_-34.052782" x="18.460415" y="-34.052782" type="priority"/>
  <node id="n_18.462424_-34.050907" x="18.462424" y="-34.050907" type="priority"/>
  <node id="n_18.458767_-34.038927" x="18.458767" y="-34.038927" type="priority"/>