<?xml version="1.0" ?>
<routes>
  <vType id="car" accel="2.6" decel="4.5" sigma="0.5" length="5.0" maxSpeed="16.7" minGap="2.5"/>
  <flow id="flow_0_in" type="car" from="-690833056#0" to="-690833056#0" begin="23400" end="26100" vehsPerHour="40.32" departSpeed="max">
    <stop lane="school_internal_in_0" startPos="10" endPos="50" duration="45"/>
  </flow>
  <flow id="flow_5_in" type="car" from="-687674693#1" to="-687674693#1" begin="23400" end="26100" vehsPerHour="33.60" departSpeed="max">
    <stop lane="school_internal_in_0" startPos="10" endPos="50" duration="45"/>
  </flow>
  <flow id="flow_10_in" type="car" from="-687674681" to="-687674681" begin="23400" end="26100" vehsPerHour="58.80" departSpeed="max">
    <stop lane="school_internal_in_0" startPos="10" endPos="50" duration="45"/>
  </flow>
  <flow id="flow_15_in" type="car" from="27669864" to="27669864" begin="23400" end="26100" vehsPerHour="35.28" departSpeed="max">
    <stop lane="school_internal_in_0" startPos="10" endPos="50" duration="45"/>
  </flow>
  <flow id="flow_1_in" type="car" from="-690833056#0" to="-690833056#0" begin="26100" end="27900" vehsPerHour="120.96" departSpeed="max">
    <stop lane="school_internal_in_0" startPos="10" endPos="50" duration="45"/>
  </flow>
  <flow id="flow_6_in" type="car" from="-687674693#1" to="-687674693#1" begin="26100" end="27900" vehsPerHour="100.80" departSpeed="max">
    <stop lane="school_internal_in_0" startPos="10" endPos="50" duration="45"/>
  </flow>
  <flow id="flow_11_in" type="car" from="-687674681" to="-687674681" begin="26100" end="27900" vehsPerHour="176.40" departSpeed="max">
    <stop lane="school_internal_in_0" startPos="10" endPos="50" duration="45"/>
  </flow>
  <flow id="flow_16_in" type="car" from="27669864" to="27669864" begin="26100" end="27900" vehsPerHour="105.84" departSpeed="max">
    <stop lane="school_internal_in_0" startPos="10" endPos="50" duration="45"/>
  </flow>
  <flow id="flow_2_in" type="car" from="-690833056#0" to="-690833056#0" begin="27900" end="28800" vehsPerHour="282.24" departSpeed="max">
    <stop lane="school_internal_in_0" startPos="10" endPos="50" duration="45"/>
  </flow>
  <flow id="flow_7_in" type="car" from="-687674693#1" to="-687674693#1" begin="27900" end="28800" vehsPerHour="235.20" departSpeed="max">
    <stop lane="school_internal_in_0" startPos="10" endPos="50" duration="45"/>
  </flow>
  <flow id="flow_12_in" type="car" from="-687674681" to="-687674681" begin="27900" end="28800" vehsPerHour="411.60" departSpeed="max">
    <stop lane="school_internal_in_0" startPos="10" endPos="50" duration="45"/>
  </flow>
  <flow id="flow_17_in" type="car" from="27669864" to="27669864" begin="27900" end="28800" vehsPerHour="246.96" departSpeed="max">
    <stop lane="school_internal_in_0" startPos="10" endPos="50" duration="45"/>
  </flow>
  <flow id="flow_3_in" type="car" from="-690833056#0" to="-690833056#0" begin="28800" end="29700" vehsPerHour="120.96" departSpeed="max">
    <stop lane="school_internal_in_0" startPos="10" endPos="50" duration="45"/>
  </flow>
  <flow id="flow_8_in" type="car" from="-687674693#1" to="-687674693#1" begin="28800" end="29700" vehsPerHour="100.80" departSpeed="max">
    <stop lane="school_internal_in_0" startPos="10" endPos="50" duration="45"/>
  </flow>
  <flow id="flow_13_in" type="car" from="-687674681" to="-687674681" begin="28800" end="29700" vehsPerHour="176.40" departSpeed="max">
    <stop lane="school_internal_in_0" startPos="10" endPos="50" duration="45"/>
  </flow>
  <flow id="flow_18_in" type="car" from="27669864" to="27669864" begin="28800" end="29700" vehsPerHour="105.84" departSpeed="max">
    <stop lane="school_internal_in_0" startPos="10" endPos="50" duration="45"/>
  </flow>
  <flow id="flow_4_in" type="car" from="-690833056#0" to="-690833056#0" begin="29700" end="30600" vehsPerHour="40.32" departSpeed="max">
    <stop lane="school_internal_in_0" startPos="10" endPos="50" duration="45"/>
  </flow>
  <flow id="flow_9_in" type="car" from="-687674693#1" to="-687674693#1" begin="29700" end="30600" vehsPerHour="33.60" departSpeed="max">
    <stop lane="school_internal_in_0" startPos="10" endPos="50" duration="45"/>
  </flow>
  <flow id="flow_14_in" type="car" from="-687674681" to="-687674681" begin="29700" end="30600" vehsPerHour="58.80" departSpeed="max">
    <stop lane="school_internal_in_0" startPos="10" endPos="50" duration="45"/>
  </flow>
  <flow id="flow_19_in" type="car" from="27669864" to="27669864" begin="29700" end="30600" vehsPerHour="35.28" departSpeed="max">
    <stop lane="school_internal_in_0" startPos="10" endPos="50" duration="45"/>
  </flow>
</routes>
