<?xml version="1.0" ?>
<routes>
  <vType id="car" accel="2.6" decel="4.5" sigma="0.5" length="5.0" maxSpeed="16.7" minGap="2.5"/>
  <flow id="flow_0_in" type="car" from="-690833056#0" to="-690833056#0" begin="23400" end="26100" vehsPerHour="26.38" departSpeed="max">
    <stop lane="school_internal_in_0" startPos="10" endPos="50" duration="45"/>
  </flow>
  <flow id="flow_5_in" type="car" from="-687674693#1" to="-687674693#1" begin="23400" end="26100" vehsPerHour="50.40" departSpeed="max">
    <stop lane="school_internal_in_0" startPos="10" endPos="50" duration="45"/>
  </flow>
  <flow id="flow_10_in" type="car" from="-687674681" to="-687674681" begin="23400" end="26100" vehsPerHour="59.98" departSpeed="max">
    <stop lane="school_internal_in_0" startPos="10" endPos="50" duration="45"/>
  </flow>
  <flow id="flow_15_in" type="car" from="27669864" to="27669864" begin="23400" end="26100" vehsPerHour="31.25" departSpeed="max">
    <stop lane="school_internal_in_0" startPos="10" endPos="50" duration="45"/>
  </flow>
  <flow id="flow_1_in" type="car" from="-690833056#0" to="-690833056#0" begin="26100" end="27900" vehsPerHour="79.13" departSpeed="max">
    <stop lane="school_internal_in_0" startPos="10" endPos="50" duration="45"/>
  </flow>
  <flow id="flow_6_in" type="car" from="-687674693#1" to="-687674693#1" begin="26100" end="27900" vehsPerHour="151.20" departSpeed="max">
    <stop lane="school_internal_in_0" startPos="10" endPos="50" duration="45"/>
  </flow>
  <flow id="flow_11_in" type="car" from="-687674681" to="-687674681" begin="26100" end="27900" vehsPerHour="179.93" departSpeed="max">
    <stop lane="school_internal_in_0" startPos="10" endPos="50" duration="45"/>
  </flow>
  <flow id="flow_16_in" type="car" from="27669864" to="27669864" begin="26100" end="27900" vehsPerHour="93.74" departSpeed="max">
    <stop lane="school_internal_in_0" startPos="10" endPos="50" duration="45"/>
  </flow>
  <flow id="flow_2_in" type="car" from="-690833056#0" to="-690833056#0" begin="27900" end="28800" vehsPerHour="184.63" departSpeed="max">
    <stop lane="school_internal_in_0" startPos="10" endPos="50" duration="45"/>
  </flow>
  <flow id="flow_7_in" type="car" from="-687674693#1" to="-687674693#1" begin="27900" end="28800" vehsPerHour="352.80" departSpeed="max">
    <stop lane="school_internal_in_0" startPos="10" endPos="50" duration="45"/>
  </flow>
  <flow id="flow_12_in" type="car" from="-687674681" to="-687674681" begin="27900" end="28800" vehsPerHour="419.83" departSpeed="max">
    <stop lane="school_internal_in_0" startPos="10" endPos="50" duration="45"/>
  </flow>
  <flow id="flow_17_in" type="car" from="27669864" to="27669864" begin="27900" end="28800" vehsPerHour="218.74" departSpeed="max">
    <stop lane="school_internal_in_0" startPos="10" endPos="50" duration="45"/>
  </flow>
  <flow id="flow_3_in" type="car" from="-690833056#0" to="-690833056#0" begin="28800" end="29700" vehsPerHour="79.13" departSpeed="max">
    <stop lane="school_internal_in_0" startPos="10" endPos="50" duration="45"/>
  </flow>
  <flow id="flow_8_in" type="car" from="-687674693#1" to="-687674693#1" begin="28800" end="29700" vehsPerHour="151.20" departSpeed="max">
    <stop lane="school_internal_in_0" startPos="10" endPos="50" duration="45"/>
  </flow>
  <flow id="flow_13_in" type="car" from="-687674681" to="-687674681" begin="28800" end="29700" vehsPerHour="179.93" departSpeed="max">
    <stop lane="school_internal_in_0" startPos="10" endPos="50" duration="45"/>
  </flow>
  <flow id="flow_18_in" type="car" from="27669864" to="27669864" begin="28800" end="29700" vehsPerHour="93.74" departSpeed="max">
    <stop lane="school_internal_in_0" startPos="10" endPos="50" duration="45"/>
  </flow>
  <flow id="flow_4_in" type="car" from="-690833056#0" to="-690833056#0" begin="29700" end="30600" vehsPerHour="26.38" departSpeed="max">
    <stop lane="school_internal_in_0" startPos="10" endPos="50" duration="45"/>
  </flow>
  <flow id="flow_9_in" type="car" from="-687674693#1" to="-687674693#1" begin="29700" end="30600" vehsPerHour="50.40" departSpeed="max">
    <stop lane="school_internal_in_0" startPos="10" endPos="50" duration="45"/>
  </flow>
  <flow id="flow_14_in" type="car" from="-687674681" to="-687674681" begin="29700" end="30600" vehsPerHour="59.98" departSpeed="max">
    <stop lane="school_internal_in_0" startPos="10" endPos="50" duration="45"/>
  </flow>
  <flow id="flow_19_in" type="car" from="27669864" to="27669864" begin="29700" end="30600" vehsPerHour="31.25" departSpeed="max">
    <stop lane="school_internal_in_0" startPos="10" endPos="50" duration="45"/>
  </flow>
</routes>
