<?xml version="1.0" ?>
<edges>
  <edge id="school_internal_in" from="-229" to="-294" numLanes="1" speed="1.3889" name="School Internal Road" shape="18.449,-34.0528"/>
</edges>
